MODEL 1
REMARK VINA RESULT:    -7.580      0.000      0.000
REMARK INTER + INTRA:          -8.842
REMARK INTER:                  -8.536
REMARK INTRA:                  -0.306
REMARK UNBOUND:                -0.376
REMARK  2 active torsions:
REMARK  status: ('A' for Active; 'I' for Inactive)
REMARK    1  A    between atoms: C4_4  and  C5_5 
REMARK       I    between atoms: C5_5  and  N7_7 
REMARK    2  A    between atoms: N7_7  and  C8_8 
ROOT
ATOM      1  C5  ZIN A   1     102.276 109.539  41.765  1.00  0.00     0.273 C 
ATOM      2  O6  ZIN A   1     101.892 109.765  40.620  1.00  0.00    -0.266 OA
ATOM      3  N7  ZIN A   1     102.048 110.422  42.808  1.00  0.00    -0.351 N 
ATOM      4  H31 ZIN A   1     102.442 110.125  43.702  1.00  0.00     0.163 HD
ENDROOT
BRANCH   3   5
ATOM      5  C8  ZIN A   1     101.367 111.698  42.660  1.00  0.00     0.088 C 
ATOM      6  C18 ZIN A   1     102.123 112.811  43.410  1.00  0.00     0.058 C 
ATOM      7  C16 ZIN A   1     101.311 114.069  43.714  1.00  0.00     0.190 C 
ATOM      8  C15 ZIN A   1     101.056 114.975  42.505  1.00  0.00     0.033 C 
ATOM      9  N19 ZIN A   1     100.004 113.633  44.330  1.00  0.00    -0.066 N 
ATOM     10  C14 ZIN A   1     100.090 114.402  41.474  1.00  0.00     0.004 C 
ATOM     11  C13 ZIN A   1      98.864 113.754  42.110  1.00  0.00     0.033 C 
ATOM     12  C11 ZIN A   1      99.160 112.880  43.332  1.00  0.00     0.190 C 
ATOM     13  C10 ZIN A   1      99.877 111.567  43.022  1.00  0.00     0.058 C 
ATOM     14  H20 ZIN A   1     100.251 112.952  45.069  1.00  0.00     0.280 HD
ATOM     15  C21 ZIN A   1      99.270 114.717  45.072  1.00  0.00     0.270 C 
ENDBRANCH   3   5
BRANCH   1  16
ATOM     16  C4  ZIN A   1     103.023 108.342  42.170  1.00  0.00     0.157 A 
ATOM     17  N3  ZIN A   1     103.987 107.827  41.378  1.00  0.00    -0.166 NA
ATOM     18  N2  ZIN A   1     104.453 106.774  42.085  1.00  0.00    -0.273 N 
ATOM     19  C1  ZIN A   1     105.565 106.012  41.569  1.00  0.00     0.180 C 
ATOM     20  C27 ZIN A   1     103.778 106.542  43.256  1.00  0.00     0.065 A 
ATOM     21  C22 ZIN A   1     102.848 107.574  43.354  1.00  0.00     0.028 A 
ATOM     22  C26 ZIN A   1     103.895 105.539  44.228  1.00  0.00     0.032 A 
ATOM     23  C23 ZIN A   1     102.002 107.629  44.479  1.00  0.00     0.016 A 
ATOM     24  C24 ZIN A   1     102.099 106.630  45.453  1.00  0.00     0.001 A 
ATOM     25  C25 ZIN A   1     103.029 105.601  45.325  1.00  0.00     0.002 A 
ENDBRANCH   1  16
TORSDOF 2
ENDMDL
MODEL 2
REMARK VINA RESULT:    -7.436      7.398      8.600
REMARK INTER + INTRA:          -8.681
REMARK INTER:                  -8.594
REMARK INTRA:                  -0.087
REMARK UNBOUND:                -0.376
REMARK  2 active torsions:
REMARK  status: ('A' for Active; 'I' for Inactive)
REMARK    1  A    between atoms: C4_4  and  C5_5 
REMARK       I    between atoms: C5_5  and  N7_7 
REMARK    2  A    between atoms: N7_7  and  C8_8 
ROOT
ATOM      1  C5  ZIN A   1      95.552 109.714  49.424  1.00  0.00     0.273 C 
ATOM      2  O6  ZIN A   1      94.351 109.958  49.498  1.00  0.00    -0.266 OA
ATOM      3  N7  ZIN A   1      96.512 110.712  49.464  1.00  0.00    -0.351 N 
ATOM      4  H31 ZIN A   1      97.472 110.376  49.367  1.00  0.00     0.163 HD
ENDROOT
BRANCH   3   5
ATOM      5  C8  ZIN A   1      96.208 112.131  49.568  1.00  0.00     0.088 C 
ATOM      6  C18 ZIN A   1      96.503 112.852  48.240  1.00  0.00     0.058 C 
ATOM      7  C16 ZIN A   1      96.659 114.370  48.336  1.00  0.00     0.190 C 
ATOM      8  C15 ZIN A   1      95.348 115.138  48.531  1.00  0.00     0.033 C 
ATOM      9  N19 ZIN A   1      97.613 114.661  49.468  1.00  0.00    -0.066 N 
ATOM     10  C14 ZIN A   1      94.702 114.953  49.900  1.00  0.00     0.004 C 
ATOM     11  C13 ZIN A   1      95.708 115.024  51.042  1.00  0.00     0.033 C 
ATOM     12  C11 ZIN A   1      97.016 114.266  50.795  1.00  0.00     0.190 C 
ATOM     13  C10 ZIN A   1      96.887 112.744  50.806  1.00  0.00     0.058 C 
ATOM     14  H20 ZIN A   1      98.427 114.038  49.322  1.00  0.00     0.280 HD
ATOM     15  C21 ZIN A   1      98.212 116.042  49.441  1.00  0.00     0.270 C 
ENDBRANCH   3   5
BRANCH   1  16
ATOM     16  C4  ZIN A   1      96.119 108.369  49.271  1.00  0.00     0.157 A 
ATOM     17  N3  ZIN A   1      95.335 107.274  49.353  1.00  0.00    -0.166 NA
ATOM     18  N2  ZIN A   1      96.191 106.251  49.138  1.00  0.00    -0.273 N 
ATOM     19  C1  ZIN A   1      95.679 104.901  49.079  1.00  0.00     0.180 C 
ATOM     20  C27 ZIN A   1      97.500 106.634  49.002  1.00  0.00     0.065 A 
ATOM     21  C22 ZIN A   1      97.483 108.025  49.057  1.00  0.00     0.028 A 
ATOM     22  C26 ZIN A   1      98.684 105.902  48.834  1.00  0.00     0.032 A 
ATOM     23  C23 ZIN A   1      98.695 108.731  48.923  1.00  0.00     0.016 A 
ATOM     24  C24 ZIN A   1      99.886 108.015  48.765  1.00  0.00     0.001 A 
ATOM     25  C25 ZIN A   1      99.878 106.622  48.726  1.00  0.00     0.002 A 
ENDBRANCH   1  16
TORSDOF 2
ENDMDL
MODEL 3
REMARK VINA RESULT:    -7.420      3.744      8.821
REMARK INTER + INTRA:          -8.664
REMARK INTER:                  -8.210
REMARK INTRA:                  -0.454
REMARK UNBOUND:                -0.376
REMARK  2 active torsions:
REMARK  status: ('A' for Active; 'I' for Inactive)
REMARK    1  A    between atoms: C4_4  and  C5_5 
REMARK       I    between atoms: C5_5  and  N7_7 
REMARK    2  A    between atoms: N7_7  and  C8_8 
ROOT
ATOM      1  C5  ZIN A   1      98.763 115.687  45.501  1.00  0.00     0.273 C 
ATOM      2  O6  ZIN A   1      98.315 116.269  44.517  1.00  0.00    -0.266 OA
ATOM      3  N7  ZIN A   1      99.610 114.596  45.390  1.00  0.00    -0.351 N 
ATOM      4  H31 ZIN A   1      99.889 114.189  46.284  1.00  0.00     0.163 HD
ENDROOT
BRANCH   3   5
ATOM      5  C8  ZIN A   1     100.032 114.017  44.124  1.00  0.00     0.088 C 
ATOM      6  C18 ZIN A   1      99.309 112.683  43.864  1.00  0.00     0.058 C 
ATOM      7  C16 ZIN A   1      99.965 111.768  42.831  1.00  0.00     0.190 C 
ATOM      8  C15 ZIN A   1      99.788 112.215  41.376  1.00  0.00     0.033 C 
ATOM      9  N19 ZIN A   1     101.430 111.665  43.175  1.00  0.00    -0.066 N 
ATOM     10  C14 ZIN A   1     100.565 113.472  40.999  1.00  0.00     0.004 C 
ATOM     11  C13 ZIN A   1     101.989 113.471  41.542  1.00  0.00     0.033 C 
ATOM     12  C11 ZIN A   1     102.125 112.991  42.990  1.00  0.00     0.190 C 
ATOM     13  C10 ZIN A   1     101.567 113.952  44.039  1.00  0.00     0.058 C 
ATOM     14  H20 ZIN A   1     101.471 111.459  44.189  1.00  0.00     0.280 HD
ATOM     15  C21 ZIN A   1     102.140 110.498  42.544  1.00  0.00     0.270 C 
ENDBRANCH   3   5
BRANCH   1  16
ATOM     16  C4  ZIN A   1      98.458 116.046  46.890  1.00  0.00     0.157 A 
ATOM     17  N3  ZIN A   1      99.254 116.892  47.578  1.00  0.00    -0.166 NA
ATOM     18  N2  ZIN A   1      98.646 116.997  48.780  1.00  0.00    -0.273 N 
ATOM     19  C1  ZIN A   1      99.188 117.897  49.770  1.00  0.00     0.180 C 
ATOM     20  C27 ZIN A   1      97.542 116.195  48.922  1.00  0.00     0.065 A 
ATOM     21  C22 ZIN A   1      97.376 115.577  47.686  1.00  0.00     0.028 A 
ATOM     22  C26 ZIN A   1      96.683 115.959  50.004  1.00  0.00     0.032 A 
ATOM     23  C23 ZIN A   1      96.294 114.693  47.503  1.00  0.00     0.016 A 
ATOM     24  C24 ZIN A   1      95.434 114.438  48.575  1.00  0.00     0.001 A 
ATOM     25  C25 ZIN A   1      95.630 115.060  49.807  1.00  0.00     0.002 A 
ENDBRANCH   1  16
TORSDOF 2
ENDMDL
MODEL 4
REMARK VINA RESULT:    -7.416      7.050      8.674
REMARK INTER + INTRA:          -8.659
REMARK INTER:                  -8.369
REMARK INTRA:                  -0.290
REMARK UNBOUND:                -0.376
REMARK  2 active torsions:
REMARK  status: ('A' for Active; 'I' for Inactive)
REMARK    1  A    between atoms: C4_4  and  C5_5 
REMARK       I    between atoms: C5_5  and  N7_7 
REMARK    2  A    between atoms: N7_7  and  C8_8 
ROOT
ATOM      1  C5  ZIN A   1      96.038 110.358  49.571  1.00  0.00     0.273 C 
ATOM      2  O6  ZIN A   1      94.946 110.417  50.129  1.00  0.00    -0.266 OA
ATOM      3  N7  ZIN A   1      96.728 111.493  49.176  1.00  0.00    -0.351 N 
ATOM      4  H31 ZIN A   1      97.611 111.303  48.700  1.00  0.00     0.163 HD
ENDROOT
BRANCH   3   5
ATOM      5  C8  ZIN A   1      96.232 112.849  49.351  1.00  0.00     0.088 C 
ATOM      6  C18 ZIN A   1      96.432 113.674  48.066  1.00  0.00     0.058 C 
ATOM      7  C16 ZIN A   1      96.380 115.192  48.243  1.00  0.00     0.190 C 
ATOM      8  C15 ZIN A   1      94.975 115.762  48.462  1.00  0.00     0.033 C 
ATOM      9  N19 ZIN A   1      97.279 115.549  49.400  1.00  0.00    -0.066 N 
ATOM     10  C14 ZIN A   1      94.352 115.419  49.810  1.00  0.00     0.004 C 
ATOM     11  C13 ZIN A   1      95.334 115.564  50.968  1.00  0.00     0.033 C 
ATOM     12  C11 ZIN A   1      96.734 115.006  50.698  1.00  0.00     0.190 C 
ATOM     13  C10 ZIN A   1      96.814 113.482  50.627  1.00  0.00     0.058 C 
ATOM     14  H20 ZIN A   1      98.170 115.051  49.232  1.00  0.00     0.280 HD
ATOM     15  C21 ZIN A   1      97.683 116.998  49.454  1.00  0.00     0.270 C 
ENDBRANCH   3   5
BRANCH   1  16
ATOM     16  C4  ZIN A   1      96.736 109.111  49.241  1.00  0.00     0.157 A 
ATOM     17  N3  ZIN A   1      98.009 109.128  48.789  1.00  0.00    -0.166 NA
ATOM     18  N2  ZIN A   1      98.308 107.820  48.627  1.00  0.00    -0.273 N 
ATOM     19  C1  ZIN A   1      99.641 107.445  48.216  1.00  0.00     0.180 C 
ATOM     20  C27 ZIN A   1      97.261 106.970  48.876  1.00  0.00     0.065 A 
ATOM     21  C22 ZIN A   1      96.221 107.786  49.309  1.00  0.00     0.028 A 
ATOM     22  C26 ZIN A   1      97.131 105.578  48.767  1.00  0.00     0.032 A 
ATOM     23  C23 ZIN A   1      94.993 107.198  49.671  1.00  0.00     0.016 A 
ATOM     24  C24 ZIN A   1      94.843 105.812  49.558  1.00  0.00     0.001 A 
ATOM     25  C25 ZIN A   1      95.897 105.017  49.110  1.00  0.00     0.002 A 
ENDBRANCH   1  16
TORSDOF 2
ENDMDL
MODEL 5
REMARK VINA RESULT:    -7.412      7.551      9.002
REMARK INTER + INTRA:          -8.654
REMARK INTER:                  -8.492
REMARK INTRA:                  -0.163
REMARK UNBOUND:                -0.376
REMARK  2 active torsions:
REMARK  status: ('A' for Active; 'I' for Inactive)
REMARK    1  A    between atoms: C4_4  and  C5_5 
REMARK       I    between atoms: C5_5  and  N7_7 
REMARK    2  A    between atoms: N7_7  and  C8_8 
ROOT
ATOM      1  C5  ZIN A   1      95.844 112.329  49.935  1.00  0.00     0.273 C 
ATOM      2  O6  ZIN A   1      95.496 112.960  50.929  1.00  0.00    -0.266 OA
ATOM      3  N7  ZIN A   1      96.431 112.943  48.841  1.00  0.00    -0.351 N 
ATOM      4  H31 ZIN A   1      96.649 112.308  48.070  1.00  0.00     0.163 HD
ENDROOT
BRANCH   3   5
ATOM      5  C8  ZIN A   1      96.671 114.374  48.740  1.00  0.00     0.088 C 
ATOM      6  C18 ZIN A   1      96.929 114.784  47.279  1.00  0.00     0.058 C 
ATOM      7  C16 ZIN A   1      97.623 116.132  47.086  1.00  0.00     0.190 C 
ATOM      8  C15 ZIN A   1      96.730 117.353  47.333  1.00  0.00     0.033 C 
ATOM      9  N19 ZIN A   1      98.823 116.165  47.999  1.00  0.00    -0.066 N 
ATOM     10  C14 ZIN A   1      96.346 117.574  48.792  1.00  0.00     0.004 C 
ATOM     11  C13 ZIN A   1      97.519 117.384  49.747  1.00  0.00     0.033 C 
ATOM     12  C11 ZIN A   1      98.401 116.169  49.448  1.00  0.00     0.190 C 
ATOM     13  C10 ZIN A   1      97.752 114.817  49.741  1.00  0.00     0.058 C 
ATOM     14  H20 ZIN A   1      99.320 115.269  47.848  1.00  0.00     0.280 HD
ATOM     15  C21 ZIN A   1      99.849 117.208  47.647  1.00  0.00     0.270 C 
ENDBRANCH   3   5
BRANCH   1  16
ATOM     16  C4  ZIN A   1      95.675 110.881  49.767  1.00  0.00     0.157 A 
ATOM     17  N3  ZIN A   1      94.512 110.277  50.092  1.00  0.00    -0.166 NA
ATOM     18  N2  ZIN A   1      94.727 108.981  49.779  1.00  0.00    -0.273 N 
ATOM     19  C1  ZIN A   1      93.650 108.030  49.928  1.00  0.00     0.180 C 
ATOM     20  C27 ZIN A   1      95.999 108.712  49.344  1.00  0.00     0.065 A 
ATOM     21  C22 ZIN A   1      96.640 109.947  49.299  1.00  0.00     0.028 A 
ATOM     22  C26 ZIN A   1      96.641 107.517  48.988  1.00  0.00     0.032 A 
ATOM     23  C23 ZIN A   1      97.978 110.008  48.862  1.00  0.00     0.016 A 
ATOM     24  C24 ZIN A   1      98.636 108.825  48.513  1.00  0.00     0.001 A 
ATOM     25  C25 ZIN A   1      97.976 107.599  48.580  1.00  0.00     0.002 A 
ENDBRANCH   1  16
TORSDOF 2
ENDMDL
