MODEL 1
REMARK VINA RESULT:    -7.532      0.000      0.000
REMARK INTER + INTRA:         -15.399
REMARK INTER:                 -12.129
REMARK INTRA:                  -3.270
REMARK UNBOUND:                -2.143
REMARK  14 active torsions:
REMARK  status: ('A' for Active; 'I' for Inactive)
REMARK    1  A    between atoms: C2_2  and  N5_5 
REMARK       I    between atoms: N5_5  and  C6_6 
REMARK    2  A    between atoms: C6_6  and  C8_8 
REMARK    3  A    between atoms: N11_10  and  C12_11 
REMARK    4  A    between atoms: C12_11  and  C13_12 
REMARK    5  A    between atoms: N21_20  and  C22_21 
REMARK    6  A    between atoms: C22_21  and  C23_22 
REMARK    7  A    between atoms: C23_22  and  O25_23 
REMARK    8  A    between atoms: C23_22  and  C26_24 
REMARK    9  A    between atoms: C26_24  and  C27_25 
REMARK   10  A    between atoms: C27_25  and  C29_26 
REMARK   11  A    between atoms: C27_25  and  C36_33 
REMARK   12  A    between atoms: C29_26  and  C30_27 
REMARK       I    between atoms: C36_33  and  N38_35 
REMARK   13  A    between atoms: N38_35  and  C39_36 
REMARK   14  A    between atoms: C48_44  and  O50_45 
ROOT
ATOM      1  C23 ZIN A   1      10.683  -1.373  27.191  1.00  0.00     0.147 C 
ENDROOT
BRANCH   1   2
ATOM      2  C22 ZIN A   1      11.165  -2.745  27.756  1.00  0.00     0.305 C 
BRANCH   2   3
ATOM      3  N21 ZIN A   1      10.278  -3.905  27.549  1.00  0.00     0.108 N 
ATOM      4  C8  ZIN A   1       9.524  -4.322  28.761  1.00  0.00     0.342 C 
ATOM      5  C10 ZIN A   1      10.105  -5.510  29.573  1.00  0.00     0.318 C 
ATOM      6  N11 ZIN A   1      11.564  -5.717  29.482  1.00  0.00     0.097 N 
ATOM      7  C19 ZIN A   1      11.971  -5.791  28.059  1.00  0.00     0.303 C 
ATOM      8  C20 ZIN A   1      11.039  -5.068  27.040  1.00  0.00     0.303 C 
BRANCH   4   9
ATOM      9  C6  ZIN A   1       8.075  -4.662  28.354  1.00  0.00     0.253 C 
ATOM     10  N5  ZIN A   1       7.464  -3.742  27.516  1.00  0.00    -0.351 N 
ATOM     11  H60 ZIN A   1       8.030  -2.949  27.216  1.00  0.00     0.163 HD
ATOM     12  O7  ZIN A   1       7.532  -5.697  28.748  1.00  0.00    -0.271 OA
BRANCH  10  13
ATOM     13  C2  ZIN A   1       6.060  -3.807  27.057  1.00  0.00     0.022 C 
ATOM     14  C1  ZIN A   1       5.081  -3.712  28.243  1.00  0.00     0.037 C 
ATOM     15  C3  ZIN A   1       5.781  -5.101  26.275  1.00  0.00     0.037 C 
ATOM     16  C4  ZIN A   1       5.777  -2.624  26.111  1.00  0.00     0.037 C 
ENDBRANCH  10  13
ENDBRANCH   4   9
BRANCH   6  17
ATOM     17  C12 ZIN A   1      11.957  -6.957  30.191  1.00  0.00     0.312 C 
BRANCH  17  18
ATOM     18  C13 ZIN A   1      13.443  -7.232  30.211  1.00  0.00    -0.013 A 
ATOM     19  C18 ZIN A   1      13.931  -8.538  30.268  1.00  0.00     0.125 A 
ATOM     20  N17 ZIN A   1      15.243  -8.869  30.311  1.00  0.00    -0.273 NA
ATOM     21  C16 ZIN A   1      16.121  -7.847  30.285  1.00  0.00     0.116 A 
ATOM     22  C15 ZIN A   1      15.748  -6.515  30.218  1.00  0.00     0.020 A 
ATOM     23  C14 ZIN A   1      14.389  -6.204  30.185  1.00  0.00     0.012 A 
ENDBRANCH  17  18
ENDBRANCH   6  17
ENDBRANCH   2   3
ENDBRANCH   1   2
BRANCH   1  24
ATOM     24  O25 ZIN A   1       9.411  -1.450  26.546  1.00  0.00    -0.394 OA
ATOM     25  H75 ZIN A   1       8.908  -0.656  26.804  1.00  0.00     0.210 HD
ENDBRANCH   1  24
BRANCH   1  26
ATOM     26  C26 ZIN A   1      10.517  -0.370  28.346  1.00  0.00     0.047 C 
BRANCH  26  27
ATOM     27  C27 ZIN A   1       9.777  -0.946  29.568  1.00  0.00     0.084 C 
BRANCH  27  28
ATOM     28  C29 ZIN A   1      10.475  -0.609  30.901  1.00  0.00     0.052 C 
BRANCH  28  29
ATOM     29  C30 ZIN A   1      10.052  -1.395  32.128  1.00  0.00    -0.057 A 
ATOM     30  C35 ZIN A   1      10.068  -2.799  32.117  1.00  0.00     0.007 A 
ATOM     31  C34 ZIN A   1       9.801  -3.530  33.280  1.00  0.00     0.001 A 
ATOM     32  C33 ZIN A   1       9.488  -2.870  34.465  1.00  0.00     0.000 A 
ATOM     33  C32 ZIN A   1       9.431  -1.478  34.483  1.00  0.00     0.001 A 
ATOM     34  C31 ZIN A   1       9.715  -0.744  33.324  1.00  0.00     0.007 A 
ENDBRANCH  28  29
ENDBRANCH  27  28
BRANCH  27  35
ATOM     35  C36 ZIN A   1       8.303  -0.474  29.620  1.00  0.00     0.222 C 
ATOM     36  O37 ZIN A   1       7.416  -1.084  29.072  1.00  0.00    -0.273 OA
ATOM     37  N38 ZIN A   1       8.088   0.661  30.380  1.00  0.00    -0.350 N 
ATOM     38  H85 ZIN A   1       8.861   1.192  30.750  1.00  0.00     0.163 HD
BRANCH  37  39
ATOM     39  C39 ZIN A   1       6.760   1.248  30.540  1.00  0.00     0.147 C 
ATOM     40  C48 ZIN A   1       6.585   2.623  29.809  1.00  0.00     0.149 C 
ATOM     41  C47 ZIN A   1       6.991   3.711  30.820  1.00  0.00     0.073 C 
ATOM     42  C46 ZIN A   1       6.646   3.063  32.118  1.00  0.00    -0.047 A 
ATOM     43  C41 ZIN A   1       6.546   1.674  31.974  1.00  0.00    -0.027 A 
ATOM     44  C45 ZIN A   1       6.499   3.675  33.352  1.00  0.00     0.008 A 
ATOM     45  C42 ZIN A   1       6.308   0.867  33.075  1.00  0.00     0.010 A 
ATOM     46  C43 ZIN A   1       6.189   1.472  34.330  1.00  0.00     0.001 A 
ATOM     47  C44 ZIN A   1       6.281   2.867  34.467  1.00  0.00     0.001 A 
BRANCH  40  48
ATOM     48  O50 ZIN A   1       7.366   2.742  28.624  1.00  0.00    -0.393 OA
ATOM     49  H92 ZIN A   1       7.899   3.552  28.712  1.00  0.00     0.210 HD
ENDBRANCH  40  48
ENDBRANCH  37  39
ENDBRANCH  27  35
ENDBRANCH  26  27
ENDBRANCH   1  26
TORSDOF 14
ENDMDL
MODEL 2
REMARK VINA RESULT:    -7.461      2.138      4.749
REMARK INTER + INTRA:         -15.275
REMARK INTER:                 -11.624
REMARK INTRA:                  -3.651
REMARK UNBOUND:                -2.143
REMARK  14 active torsions:
REMARK  status: ('A' for Active; 'I' for Inactive)
REMARK    1  A    between atoms: C2_2  and  N5_5 
REMARK       I    between atoms: N5_5  and  C6_6 
REMARK    2  A    between atoms: C6_6  and  C8_8 
REMARK    3  A    between atoms: N11_10  and  C12_11 
REMARK    4  A    between atoms: C12_11  and  C13_12 
REMARK    5  A    between atoms: N21_20  and  C22_21 
REMARK    6  A    between atoms: C22_21  and  C23_22 
REMARK    7  A    between atoms: C23_22  and  O25_23 
REMARK    8  A    between atoms: C23_22  and  C26_24 
REMARK    9  A    between atoms: C26_24  and  C27_25 
REMARK   10  A    between atoms: C27_25  and  C29_26 
REMARK   11  A    between atoms: C27_25  and  C36_33 
REMARK   12  A    between atoms: C29_26  and  C30_27 
REMARK       I    between atoms: C36_33  and  N38_35 
REMARK   13  A    between atoms: N38_35  and  C39_36 
REMARK   14  A    between atoms: C48_44  and  O50_45 
ROOT
ATOM      1  C23 ZIN A   1      11.153  -4.221  27.749  1.00  0.00     0.147 C 
ENDROOT
BRANCH   1   2
ATOM      2  C22 ZIN A   1      11.056  -5.769  27.921  1.00  0.00     0.305 C 
BRANCH   2   3
ATOM      3  N21 ZIN A   1      10.299  -6.268  29.084  1.00  0.00     0.108 N 
ATOM      4  C8  ZIN A   1      10.564  -5.531  30.349  1.00  0.00     0.342 C 
ATOM      5  C10 ZIN A   1      11.579  -6.170  31.333  1.00  0.00     0.318 C 
ATOM      6  N11 ZIN A   1      12.610  -7.045  30.737  1.00  0.00     0.097 N 
ATOM      7  C19 ZIN A   1      11.963  -8.075  29.891  1.00  0.00     0.303 C 
ATOM      8  C20 ZIN A   1      10.565  -7.707  29.310  1.00  0.00     0.303 C 
BRANCH   4   9
ATOM      9  C6  ZIN A   1       9.228  -5.313  31.088  1.00  0.00     0.253 C 
ATOM     10  N5  ZIN A   1       8.471  -4.240  30.642  1.00  0.00    -0.351 N 
ATOM     11  H60 ZIN A   1       8.844  -3.716  29.851  1.00  0.00     0.163 HD
ATOM     12  O7  ZIN A   1       8.875  -6.070  31.997  1.00  0.00    -0.271 OA
BRANCH  10  13
ATOM     13  C2  ZIN A   1       7.200  -3.785  31.243  1.00  0.00     0.022 C 
ATOM     14  C1  ZIN A   1       6.665  -2.527  30.532  1.00  0.00     0.037 C 
ATOM     15  C3  ZIN A   1       7.358  -3.488  32.744  1.00  0.00     0.037 C 
ATOM     16  C4  ZIN A   1       6.142  -4.897  31.101  1.00  0.00     0.037 C 
ENDBRANCH  10  13
ENDBRANCH   4   9
BRANCH   6  17
ATOM     17  C12 ZIN A   1      13.418  -7.689  31.799  1.00  0.00     0.312 C 
BRANCH  17  18
ATOM     18  C13 ZIN A   1      14.611  -8.472  31.299  1.00  0.00    -0.013 A 
ATOM     19  C18 ZIN A   1      14.802  -9.804  31.671  1.00  0.00     0.125 A 
ATOM     20  N17 ZIN A   1      15.851 -10.567  31.286  1.00  0.00    -0.273 NA
ATOM     21  C16 ZIN A   1      16.756  -9.981  30.478  1.00  0.00     0.116 A 
ATOM     22  C15 ZIN A   1      16.660  -8.671  30.038  1.00  0.00     0.020 A 
ATOM     23  C14 ZIN A   1      15.574  -7.906  30.460  1.00  0.00     0.012 A 
ENDBRANCH  17  18
ENDBRANCH   6  17
ENDBRANCH   2   3
ENDBRANCH   1   2
BRANCH   1  24
ATOM     24  O25 ZIN A   1      12.494  -3.760  27.586  1.00  0.00    -0.394 OA
ATOM     25  H75 ZIN A   1      13.084  -4.472  27.895  1.00  0.00     0.210 HD
ENDBRANCH   1  24
BRANCH   1  26
ATOM     26  C26 ZIN A   1      10.397  -3.797  26.478  1.00  0.00     0.047 C 
BRANCH  26  27
ATOM     27  C27 ZIN A   1       9.589  -2.495  26.640  1.00  0.00     0.084 C 
BRANCH  27  28
ATOM     28  C29 ZIN A   1       8.171  -2.738  27.194  1.00  0.00     0.052 C 
BRANCH  28  29
ATOM     29  C30 ZIN A   1       7.268  -3.674  26.412  1.00  0.00    -0.057 A 
ATOM     30  C35 ZIN A   1       6.812  -3.322  25.132  1.00  0.00     0.007 A 
ATOM     31  C34 ZIN A   1       6.084  -4.229  24.354  1.00  0.00     0.001 A 
ATOM     32  C33 ZIN A   1       5.777  -5.491  24.853  1.00  0.00     0.000 A 
ATOM     33  C32 ZIN A   1       6.189  -5.841  26.137  1.00  0.00     0.001 A 
ATOM     34  C31 ZIN A   1       6.933  -4.942  26.911  1.00  0.00     0.007 A 
ENDBRANCH  28  29
ENDBRANCH  27  28
BRANCH  27  35
ATOM     35  C36 ZIN A   1      10.328  -1.471  27.537  1.00  0.00     0.222 C 
ATOM     36  O37 ZIN A   1      11.396  -1.001  27.226  1.00  0.00    -0.273 OA
ATOM     37  N38 ZIN A   1       9.642  -1.108  28.682  1.00  0.00    -0.350 N 
ATOM     38  H85 ZIN A   1       8.796  -1.583  28.952  1.00  0.00     0.163 HD
BRANCH  37  39
ATOM     39  C39 ZIN A   1      10.188  -0.153  29.643  1.00  0.00     0.147 C 
ATOM     40  C48 ZIN A   1      11.124  -0.804  30.718  1.00  0.00     0.149 C 
ATOM     41  C47 ZIN A   1      10.221  -1.204  31.899  1.00  0.00     0.073 C 
ATOM     42  C46 ZIN A   1       9.133  -0.189  31.807  1.00  0.00    -0.047 A 
ATOM     43  C41 ZIN A   1       9.088   0.382  30.529  1.00  0.00    -0.027 A 
ATOM     44  C45 ZIN A   1       8.207   0.144  32.783  1.00  0.00     0.008 A 
ATOM     45  C42 ZIN A   1       8.100   1.298  30.202  1.00  0.00     0.010 A 
ATOM     46  C43 ZIN A   1       7.143   1.618  31.169  1.00  0.00     0.001 A 
ATOM     47  C44 ZIN A   1       7.198   1.048  32.452  1.00  0.00     0.001 A 
BRANCH  40  48
ATOM     48  O50 ZIN A   1      11.836  -1.941  30.240  1.00  0.00    -0.393 OA
ATOM     49  H92 ZIN A   1      11.691  -1.987  29.278  1.00  0.00     0.210 HD
ENDBRANCH  40  48
ENDBRANCH  37  39
ENDBRANCH  27  35
ENDBRANCH  26  27
ENDBRANCH   1  26
TORSDOF 14
ENDMDL
MODEL 3
REMARK VINA RESULT:    -7.251      3.346      9.745
REMARK INTER + INTRA:         -14.905
REMARK INTER:                 -11.710
REMARK INTRA:                  -3.195
REMARK UNBOUND:                -2.143
REMARK  14 active torsions:
REMARK  status: ('A' for Active; 'I' for Inactive)
REMARK    1  A    between atoms: C2_2  and  N5_5 
REMARK       I    between atoms: N5_5  and  C6_6 
REMARK    2  A    between atoms: C6_6  and  C8_8 
REMARK    3  A    between atoms: N11_10  and  C12_11 
REMARK    4  A    between atoms: C12_11  and  C13_12 
REMARK    5  A    between atoms: N21_20  and  C22_21 
REMARK    6  A    between atoms: C22_21  and  C23_22 
REMARK    7  A    between atoms: C23_22  and  O25_23 
REMARK    8  A    between atoms: C23_22  and  C26_24 
REMARK    9  A    between atoms: C26_24  and  C27_25 
REMARK   10  A    between atoms: C27_25  and  C29_26 
REMARK   11  A    between atoms: C27_25  and  C36_33 
REMARK   12  A    between atoms: C29_26  and  C30_27 
REMARK       I    between atoms: C36_33  and  N38_35 
REMARK   13  A    between atoms: N38_35  and  C39_36 
REMARK   14  A    between atoms: C48_44  and  O50_45 
ROOT
ATOM      1  C23 ZIN A   1       8.048   1.889  30.574  1.00  0.00     0.147 C 
ENDROOT
BRANCH   1   2
ATOM      2  C22 ZIN A   1       6.949   2.488  29.641  1.00  0.00     0.305 C 
BRANCH   2   3
ATOM      3  N21 ZIN A   1       5.897   1.569  29.170  1.00  0.00     0.108 N 
ATOM      4  C8  ZIN A   1       5.438   1.827  27.778  1.00  0.00     0.342 C 
ATOM      5  C10 ZIN A   1       4.134   2.651  27.611  1.00  0.00     0.318 C 
ATOM      6  N11 ZIN A   1       3.808   3.593  28.701  1.00  0.00     0.097 N 
ATOM      7  C19 ZIN A   1       3.830   2.881  30.001  1.00  0.00     0.303 C 
ATOM      8  C20 ZIN A   1       4.722   1.606  30.070  1.00  0.00     0.303 C 
BRANCH   4   9
ATOM      9  C6  ZIN A   1       5.266   0.476  27.052  1.00  0.00     0.253 C 
ATOM     10  N5  ZIN A   1       4.373   0.484  25.991  1.00  0.00    -0.351 N 
ATOM     11  H60 ZIN A   1       3.940   1.379  25.764  1.00  0.00     0.163 HD
ATOM     12  O7  ZIN A   1       5.906  -0.518  27.402  1.00  0.00    -0.271 OA
BRANCH  10  13
ATOM     13  C2  ZIN A   1       3.982  -0.701  25.198  1.00  0.00     0.022 C 
ATOM     14  C1  ZIN A   1       3.286  -1.756  26.077  1.00  0.00     0.037 C 
ATOM     15  C3  ZIN A   1       5.195  -1.342  24.504  1.00  0.00     0.037 C 
ATOM     16  C4  ZIN A   1       2.992  -0.273  24.097  1.00  0.00     0.037 C 
ENDBRANCH  10  13
ENDBRANCH   4   9
BRANCH   6  17
ATOM     17  C12 ZIN A   1       2.478   4.206  28.476  1.00  0.00     0.312 C 
BRANCH  17  18
ATOM     18  C13 ZIN A   1       2.310   5.588  29.064  1.00  0.00    -0.013 A 
ATOM     19  C18 ZIN A   1       2.997   6.682  28.536  1.00  0.00     0.125 A 
ATOM     20  N17 ZIN A   1       2.918   7.945  29.016  1.00  0.00    -0.273 NA
ATOM     21  C16 ZIN A   1       2.105   8.137  30.073  1.00  0.00     0.116 A 
ATOM     22  C15 ZIN A   1       1.369   7.126  30.670  1.00  0.00     0.020 A 
ATOM     23  C14 ZIN A   1       1.478   5.833  30.160  1.00  0.00     0.012 A 
ENDBRANCH  17  18
ENDBRANCH   6  17
ENDBRANCH   2   3
ENDBRANCH   1   2
BRANCH   1  24
ATOM     24  O25 ZIN A   1       7.614   1.742  31.926  1.00  0.00    -0.394 OA
ATOM     25  H75 ZIN A   1       8.261   2.206  32.488  1.00  0.00     0.210 HD
ENDBRANCH   1  24
BRANCH   1  26
ATOM     26  C26 ZIN A   1       8.422   0.478  30.088  1.00  0.00     0.047 C 
BRANCH  26  27
ATOM     27  C27 ZIN A   1       9.866   0.065  30.431  1.00  0.00     0.084 C 
BRANCH  27  28
ATOM     28  C29 ZIN A   1       9.936  -0.969  31.572  1.00  0.00     0.052 C 
BRANCH  28  29
ATOM     29  C30 ZIN A   1       9.686  -2.423  31.214  1.00  0.00    -0.057 A 
ATOM     30  C35 ZIN A   1      10.663  -3.398  31.466  1.00  0.00     0.007 A 
ATOM     31  C34 ZIN A   1      10.395  -4.755  31.255  1.00  0.00     0.001 A 
ATOM     32  C33 ZIN A   1       9.155  -5.156  30.765  1.00  0.00     0.000 A 
ATOM     33  C32 ZIN A   1       8.188  -4.196  30.473  1.00  0.00     0.001 A 
ATOM     34  C31 ZIN A   1       8.448  -2.839  30.700  1.00  0.00     0.007 A 
ENDBRANCH  28  29
ENDBRANCH  27  28
BRANCH  27  35
ATOM     35  C36 ZIN A   1      10.615  -0.481  29.190  1.00  0.00     0.222 C 
ATOM     36  O37 ZIN A   1      11.766  -0.196  28.961  1.00  0.00    -0.273 OA
ATOM     37  N38 ZIN A   1       9.877  -1.350  28.408  1.00  0.00    -0.350 N 
ATOM     38  H85 ZIN A   1       8.895  -1.497  28.580  1.00  0.00     0.163 HD
BRANCH  37  39
ATOM     39  C39 ZIN A   1      10.423  -1.961  27.198  1.00  0.00     0.147 C 
ATOM     40  C48 ZIN A   1       9.337  -2.332  26.132  1.00  0.00     0.149 C 
ATOM     41  C47 ZIN A   1       8.892  -3.773  26.443  1.00  0.00     0.073 C 
ATOM     42  C46 ZIN A   1      10.126  -4.345  27.053  1.00  0.00    -0.047 A 
ATOM     43  C41 ZIN A   1      10.977  -3.331  27.510  1.00  0.00    -0.027 A 
ATOM     44  C45 ZIN A   1      10.428  -5.684  27.244  1.00  0.00     0.008 A 
ATOM     45  C42 ZIN A   1      12.149  -3.644  28.180  1.00  0.00     0.010 A 
ATOM     46  C43 ZIN A   1      12.447  -4.991  28.405  1.00  0.00     0.001 A 
ATOM     47  C44 ZIN A   1      11.595  -6.004  27.938  1.00  0.00     0.001 A 
BRANCH  40  48
ATOM     48  O50 ZIN A   1       8.210  -1.461  26.140  1.00  0.00    -0.393 OA
ATOM     49  H92 ZIN A   1       7.703  -1.654  26.949  1.00  0.00     0.210 HD
ENDBRANCH  40  48
ENDBRANCH  37  39
ENDBRANCH  27  35
ENDBRANCH  26  27
ENDBRANCH   1  26
TORSDOF 14
ENDMDL
MODEL 4
REMARK VINA RESULT:    -7.179      3.778      9.040
REMARK INTER + INTRA:         -14.777
REMARK INTER:                 -12.163
REMARK INTRA:                  -2.614
REMARK UNBOUND:                -2.143
REMARK  14 active torsions:
REMARK  status: ('A' for Active; 'I' for Inactive)
REMARK    1  A    between atoms: C2_2  and  N5_5 
REMARK       I    between atoms: N5_5  and  C6_6 
REMARK    2  A    between atoms: C6_6  and  C8_8 
REMARK    3  A    between atoms: N11_10  and  C12_11 
REMARK    4  A    between atoms: C12_11  and  C13_12 
REMARK    5  A    between atoms: N21_20  and  C22_21 
REMARK    6  A    between atoms: C22_21  and  C23_22 
REMARK    7  A    between atoms: C23_22  and  O25_23 
REMARK    8  A    between atoms: C23_22  and  C26_24 
REMARK    9  A    between atoms: C26_24  and  C27_25 
REMARK   10  A    between atoms: C27_25  and  C29_26 
REMARK   11  A    between atoms: C27_25  and  C36_33 
REMARK   12  A    between atoms: C29_26  and  C30_27 
REMARK       I    between atoms: C36_33  and  N38_35 
REMARK   13  A    between atoms: N38_35  and  C39_36 
REMARK   14  A    between atoms: C48_44  and  O50_45 
ROOT
ATOM      1  C23 ZIN A   1       9.339  -1.354  33.258  1.00  0.00     0.147 C 
ENDROOT
BRANCH   1   2
ATOM      2  C22 ZIN A   1       9.808  -0.789  34.635  1.00  0.00     0.305 C 
BRANCH   2   3
ATOM      3  N21 ZIN A   1       8.976   0.263  35.246  1.00  0.00     0.108 N 
ATOM      4  C8  ZIN A   1       9.209   1.625  34.695  1.00  0.00     0.342 C 
ATOM      5  C10 ZIN A   1      10.148   2.558  35.505  1.00  0.00     0.318 C 
ATOM      6  N11 ZIN A   1      11.170   1.895  36.340  1.00  0.00     0.097 N 
ATOM      7  C19 ZIN A   1      10.524   0.892  37.219  1.00  0.00     0.303 C 
ATOM      8  C20 ZIN A   1       9.172   0.306  36.713  1.00  0.00     0.303 C 
BRANCH   4   9
ATOM      9  C6  ZIN A   1       7.848   2.329  34.514  1.00  0.00     0.253 C 
ATOM     10  N5  ZIN A   1       6.899   1.611  33.802  1.00  0.00    -0.351 N 
ATOM     11  H60 ZIN A   1       7.169   0.677  33.494  1.00  0.00     0.163 HD
ATOM     12  O7  ZIN A   1       7.642   3.445  34.998  1.00  0.00    -0.271 OA
BRANCH  10  13
ATOM     13  C2  ZIN A   1       5.556   2.106  33.432  1.00  0.00     0.022 C 
ATOM     14  C1  ZIN A   1       5.646   3.422  32.637  1.00  0.00     0.037 C 
ATOM     15  C3  ZIN A   1       4.673   2.325  34.672  1.00  0.00     0.037 C 
ATOM     16  C4  ZIN A   1       4.854   1.060  32.543  1.00  0.00     0.037 C 
ENDBRANCH  10  13
ENDBRANCH   4   9
BRANCH   6  17
ATOM     17  C12 ZIN A   1      11.899   2.895  37.156  1.00  0.00     0.312 C 
BRANCH  17  18
ATOM     18  C13 ZIN A   1      13.255   3.286  36.614  1.00  0.00    -0.013 A 
ATOM     19  C18 ZIN A   1      14.427   2.918  37.279  1.00  0.00     0.125 A 
ATOM     20  N17 ZIN A   1      15.676   3.245  36.874  1.00  0.00    -0.273 NA
ATOM     21  C16 ZIN A   1      15.771   3.968  35.741  1.00  0.00     0.116 A 
ATOM     22  C15 ZIN A   1      14.677   4.377  34.996  1.00  0.00     0.020 A 
ATOM     23  C14 ZIN A   1      13.401   4.034  35.444  1.00  0.00     0.012 A 
ENDBRANCH  17  18
ENDBRANCH   6  17
ENDBRANCH   2   3
ENDBRANCH   1   2
BRANCH   1  24
ATOM     24  O25 ZIN A   1       7.974  -1.054  32.967  1.00  0.00    -0.394 OA
ATOM     25  H75 ZIN A   1       7.448  -1.320  33.743  1.00  0.00     0.210 HD
ENDBRANCH   1  24
BRANCH   1  26
ATOM     26  C26 ZIN A   1      10.168  -0.716  32.130  1.00  0.00     0.047 C 
BRANCH  26  27
ATOM     27  C27 ZIN A   1       9.355  -0.410  30.857  1.00  0.00     0.084 C 
BRANCH  27  28
ATOM     28  C29 ZIN A   1       8.772   1.017  30.851  1.00  0.00     0.052 C 
BRANCH  28  29
ATOM     29  C30 ZIN A   1       7.561   1.272  29.972  1.00  0.00    -0.057 A 
ATOM     30  C35 ZIN A   1       7.231   2.577  29.574  1.00  0.00     0.007 A 
ATOM     31  C34 ZIN A   1       6.193   2.810  28.664  1.00  0.00     0.001 A 
ATOM     32  C33 ZIN A   1       5.453   1.744  28.159  1.00  0.00     0.000 A 
ATOM     33  C32 ZIN A   1       5.744   0.447  28.575  1.00  0.00     0.001 A 
ATOM     34  C31 ZIN A   1       6.793   0.210  29.472  1.00  0.00     0.007 A 
ENDBRANCH  28  29
ENDBRANCH  27  28
BRANCH  27  35
ATOM     35  C36 ZIN A   1      10.194  -0.633  29.575  1.00  0.00     0.222 C 
ATOM     36  O37 ZIN A   1      10.891   0.236  29.107  1.00  0.00    -0.273 OA
ATOM     37  N38 ZIN A   1      10.117  -1.910  29.051  1.00  0.00    -0.350 N 
ATOM     38  H85 ZIN A   1       9.461  -2.582  29.416  1.00  0.00     0.163 HD
BRANCH  37  39
ATOM     39  C39 ZIN A   1      10.842  -2.299  27.844  1.00  0.00     0.147 C 
ATOM     40  C48 ZIN A   1       9.938  -2.400  26.569  1.00  0.00     0.149 C 
ATOM     41  C47 ZIN A   1       9.423  -3.850  26.511  1.00  0.00     0.073 C 
ATOM     42  C46 ZIN A   1      10.531  -4.592  27.178  1.00  0.00    -0.047 A 
ATOM     43  C41 ZIN A   1      11.314  -3.730  27.957  1.00  0.00    -0.027 A 
ATOM     44  C45 ZIN A   1      10.774  -5.956  27.142  1.00  0.00     0.008 A 
ATOM     45  C42 ZIN A   1      12.355  -4.225  28.725  1.00  0.00     0.010 A 
ATOM     46  C43 ZIN A   1      12.589  -5.604  28.719  1.00  0.00     0.001 A 
ATOM     47  C44 ZIN A   1      11.807  -6.462  27.931  1.00  0.00     0.001 A 
BRANCH  40  48
ATOM     48  O50 ZIN A   1       8.840  -1.493  26.575  1.00  0.00    -0.393 OA
ATOM     49  H92 ZIN A   1       9.054  -0.788  27.211  1.00  0.00     0.210 HD
ENDBRANCH  40  48
ENDBRANCH  37  39
ENDBRANCH  27  35
ENDBRANCH  26  27
ENDBRANCH   1  26
TORSDOF 14
ENDMDL
MODEL 5
REMARK VINA RESULT:    -7.165      2.757      7.305
REMARK INTER + INTRA:         -14.754
REMARK INTER:                 -10.075
REMARK INTRA:                  -4.680
REMARK UNBOUND:                -2.143
REMARK  14 active torsions:
REMARK  status: ('A' for Active; 'I' for Inactive)
REMARK    1  A    between atoms: C2_2  and  N5_5 
REMARK       I    between atoms: N5_5  and  C6_6 
REMARK    2  A    between atoms: C6_6  and  C8_8 
REMARK    3  A    between atoms: N11_10  and  C12_11 
REMARK    4  A    between atoms: C12_11  and  C13_12 
REMARK    5  A    between atoms: N21_20  and  C22_21 
REMARK    6  A    between atoms: C22_21  and  C23_22 
REMARK    7  A    between atoms: C23_22  and  O25_23 
REMARK    8  A    between atoms: C23_22  and  C26_24 
REMARK    9  A    between atoms: C26_24  and  C27_25 
REMARK   10  A    between atoms: C27_25  and  C29_26 
REMARK   11  A    between atoms: C27_25  and  C36_33 
REMARK   12  A    between atoms: C29_26  and  C30_27 
REMARK       I    between atoms: C36_33  and  N38_35 
REMARK   13  A    between atoms: N38_35  and  C39_36 
REMARK   14  A    between atoms: C48_44  and  O50_45 
ROOT
ATOM      1  C23 ZIN A   1       7.615  -0.083  29.644  1.00  0.00     0.147 C 
ENDROOT
BRANCH   1   2
ATOM      2  C22 ZIN A   1       6.313  -0.439  30.429  1.00  0.00     0.305 C 
BRANCH   2   3
ATOM      3  N21 ZIN A   1       5.920  -1.860  30.465  1.00  0.00     0.108 N 
ATOM      4  C8  ZIN A   1       6.659  -2.723  29.505  1.00  0.00     0.342 C 
ATOM      5  C10 ZIN A   1       5.947  -3.049  28.165  1.00  0.00     0.318 C 
ATOM      6  N11 ZIN A   1       4.961  -2.059  27.687  1.00  0.00     0.097 N 
ATOM      7  C19 ZIN A   1       3.979  -1.773  28.760  1.00  0.00     0.303 C 
ATOM      8  C20 ZIN A   1       4.468  -2.012  30.220  1.00  0.00     0.303 C 
BRANCH   4   9
ATOM      9  C6  ZIN A   1       7.024  -4.048  30.206  1.00  0.00     0.253 C 
ATOM     10  N5  ZIN A   1       8.349  -4.163  30.601  1.00  0.00    -0.351 N 
ATOM     11  H60 ZIN A   1       8.950  -3.358  30.427  1.00  0.00     0.163 HD
ATOM     12  O7  ZIN A   1       6.172  -4.917  30.405  1.00  0.00    -0.271 OA
BRANCH  10  13
ATOM     13  C2  ZIN A   1       8.953  -5.365  31.216  1.00  0.00     0.022 C 
ATOM     14  C1  ZIN A   1       8.816  -6.591  30.295  1.00  0.00     0.037 C 
ATOM     15  C3  ZIN A   1       8.318  -5.682  32.579  1.00  0.00     0.037 C 
ATOM     16  C4  ZIN A   1      10.456  -5.114  31.452  1.00  0.00     0.037 C 
ENDBRANCH  10  13
ENDBRANCH   4   9
BRANCH   6  17
ATOM     17  C12 ZIN A   1       4.267  -2.561  26.479  1.00  0.00     0.312 C 
BRANCH  17  18
ATOM     18  C13 ZIN A   1       5.139  -2.676  25.249  1.00  0.00    -0.013 A 
ATOM     19  C18 ZIN A   1       5.834  -1.571  24.756  1.00  0.00     0.125 A 
ATOM     20  N17 ZIN A   1       6.617  -1.584  23.652  1.00  0.00    -0.273 NA
ATOM     21  C16 ZIN A   1       6.725  -2.762  23.006  1.00  0.00     0.116 A 
ATOM     22  C15 ZIN A   1       6.089  -3.923  23.413  1.00  0.00     0.020 A 
ATOM     23  C14 ZIN A   1       5.281  -3.877  24.548  1.00  0.00     0.012 A 
ENDBRANCH  17  18
ENDBRANCH   6  17
ENDBRANCH   2   3
ENDBRANCH   1   2
BRANCH   1  24
ATOM     24  O25 ZIN A   1       7.381   0.801  28.547  1.00  0.00    -0.394 OA
ATOM     25  H75 ZIN A   1       7.690   1.685  28.818  1.00  0.00     0.210 HD
ENDBRANCH   1  24
BRANCH   1  26
ATOM     26  C26 ZIN A   1       8.596   0.646  30.579  1.00  0.00     0.047 C 
BRANCH  26  27
ATOM     27  C27 ZIN A   1       9.942  -0.082  30.756  1.00  0.00     0.084 C 
BRANCH  27  28
ATOM     28  C29 ZIN A   1       9.819  -1.368  31.599  1.00  0.00     0.052 C 
BRANCH  28  29
ATOM     29  C30 ZIN A   1       9.265  -1.229  33.006  1.00  0.00    -0.057 A 
ATOM     30  C35 ZIN A   1       8.090  -1.900  33.379  1.00  0.00     0.007 A 
ATOM     31  C34 ZIN A   1       7.641  -1.880  34.704  1.00  0.00     0.001 A 
ATOM     32  C33 ZIN A   1       8.345  -1.168  35.671  1.00  0.00     0.000 A 
ATOM     33  C32 ZIN A   1       9.492  -0.466  35.308  1.00  0.00     0.001 A 
ATOM     34  C31 ZIN A   1       9.953  -0.498  33.985  1.00  0.00     0.007 A 
ENDBRANCH  28  29
ENDBRANCH  27  28
BRANCH  27  35
ATOM     35  C36 ZIN A   1      10.597  -0.417  29.393  1.00  0.00     0.222 C 
ATOM     36  O37 ZIN A   1      11.329   0.359  28.828  1.00  0.00    -0.273 OA
ATOM     37  N38 ZIN A   1      10.313  -1.682  28.913  1.00  0.00    -0.350 N 
ATOM     38  H85 ZIN A   1       9.632  -2.269  29.367  1.00  0.00     0.163 HD
BRANCH  37  39
ATOM     39  C39 ZIN A   1      10.846  -2.167  27.642  1.00  0.00     0.147 C 
ATOM     40  C48 ZIN A   1       9.769  -2.283  26.510  1.00  0.00     0.149 C 
ATOM     41  C47 ZIN A   1       9.186  -3.705  26.603  1.00  0.00     0.073 C 
ATOM     42  C46 ZIN A   1      10.341  -4.470  27.153  1.00  0.00    -0.047 A 
ATOM     43  C41 ZIN A   1      11.263  -3.614  27.768  1.00  0.00    -0.027 A 
ATOM     44  C45 ZIN A   1      10.515  -5.845  27.159  1.00  0.00     0.008 A 
ATOM     45  C42 ZIN A   1      12.377  -4.125  28.414  1.00  0.00     0.010 A 
ATOM     46  C43 ZIN A   1      12.545  -5.513  28.453  1.00  0.00     0.001 A 
ATOM     47  C44 ZIN A   1      11.622  -6.366  27.827  1.00  0.00     0.001 A 
BRANCH  40  48
ATOM     48  O50 ZIN A   1       8.725  -1.319  26.615  1.00  0.00    -0.393 OA
ATOM     49  H92 ZIN A   1       9.085  -0.471  26.301  1.00  0.00     0.210 HD
ENDBRANCH  40  48
ENDBRANCH  37  39
ENDBRANCH  27  35
ENDBRANCH  26  27
ENDBRANCH   1  26
TORSDOF 14
ENDMDL
