MODEL 1
REMARK VINA RESULT:    -7.334      0.000      0.000
REMARK INTER + INTRA:         -14.386
REMARK INTER:                  -9.620
REMARK INTRA:                  -4.766
REMARK UNBOUND:                -1.908
REMARK  12 active torsions:
REMARK  status: ('A' for Active; 'I' for Inactive)
REMARK    1  A    between atoms: C2_2  and  C3_3 
REMARK    2  A    between atoms: C3_3  and  C4_4 
REMARK    3  A    between atoms: C4_4  and  C5_5 
REMARK    4  A    between atoms: C5_5  and  C6_6 
REMARK    5  A    between atoms: C6_6  and  C7_7 
REMARK    6  A    between atoms: C16_16  and  C17_17 
REMARK    7  A    between atoms: C17_17  and  C19_18 
REMARK    8  A    between atoms: C17_17  and  C21_20 
REMARK    9  A    between atoms: C25_24  and  N26_25 
REMARK   10  A    between atoms: N26_25  and  S27_26 
REMARK   11  A    between atoms: S27_26  and  C30_29 
REMARK   12  A    between atoms: C33_32  and  C34_33 
ROOT
ATOM      1  C17 ZIN A   1       5.553   5.729  16.032  1.00  0.00     0.039 C 
ENDROOT
BRANCH   1   2
ATOM      2  C16 ZIN A   1       5.171   4.895  17.324  1.00  0.00     0.163 C 
ATOM      3  C14 ZIN A   1       5.220   3.392  17.281  1.00  0.00     0.144 C 
ATOM      4  C13 ZIN A   1       3.961   2.573  17.403  1.00  0.00     0.118 C 
ATOM      5  O15 ZIN A   1       6.300   2.801  17.155  1.00  0.00    -0.297 OA
ATOM      6  C4  ZIN A   1       2.668   3.321  17.852  1.00  0.00     0.077 C 
ATOM      7  O43 ZIN A   1       2.867   4.701  18.183  1.00  0.00    -0.309 OA
ATOM      8  C41 ZIN A   1       3.972   5.446  18.032  1.00  0.00     0.271 C 
ATOM      9  O42 ZIN A   1       3.998   6.576  18.519  1.00  0.00    -0.264 OA
BRANCH   6  10
ATOM     10  C3  ZIN A   1       1.638   3.256  16.741  1.00  0.00     0.038 C 
BRANCH  10  11
ATOM     11  C2  ZIN A   1       0.754   4.548  16.296  1.00  0.00    -0.002 C 
ATOM     12  C1  ZIN A   1      -0.279   4.903  15.144  1.00  0.00     0.005 C 
ENDBRANCH  10  11
ENDBRANCH   6  10
BRANCH   6  13
ATOM     13  C5  ZIN A   1       2.004   2.599  19.037  1.00  0.00     0.043 C 
BRANCH  13  14
ATOM     14  C6  ZIN A   1       2.809   2.518  20.370  1.00  0.00     0.041 C 
BRANCH  14  15
ATOM     15  C7  ZIN A   1       2.333   3.533  21.362  1.00  0.00    -0.058 A 
ATOM     16  C12 ZIN A   1       1.002   3.675  21.803  1.00  0.00     0.007 A 
ATOM     17  C11 ZIN A   1       0.710   4.614  22.797  1.00  0.00     0.001 A 
ATOM     18  C10 ZIN A   1       1.737   5.372  23.358  1.00  0.00     0.000 A 
ATOM     19  C9  ZIN A   1       3.038   5.249  22.884  1.00  0.00     0.001 A 
ATOM     20  C8  ZIN A   1       3.321   4.363  21.867  1.00  0.00     0.007 A 
ENDBRANCH  14  15
ENDBRANCH  13  14
ENDBRANCH   6  13
ENDBRANCH   1   2
BRANCH   1  21
ATOM     21  C19 ZIN A   1       6.836   5.170  15.332  1.00  0.00     0.006 C 
ATOM     22  C20 ZIN A   1       8.117   6.000  15.475  1.00  0.00     0.006 C 
ENDBRANCH   1  21
BRANCH   1  23
ATOM     23  C21 ZIN A   1       4.428   6.086  15.055  1.00  0.00    -0.051 C 
ATOM     24  C40 ZIN A   1       3.905   7.373  14.936  1.00  0.00     0.032 C 
ATOM     25  C25 ZIN A   1       2.857   7.661  14.034  1.00  0.00     0.023 C 
ATOM     26  C24 ZIN A   1       2.401   6.694  13.160  1.00  0.00     0.024 C 
ATOM     27  C23 ZIN A   1       2.852   5.403  13.295  1.00  0.00     0.002 C 
ATOM     28  C22 ZIN A   1       3.837   5.098  14.240  1.00  0.00     0.007 C 
BRANCH  25  29
ATOM     29  N26 ZIN A   1       2.310   8.966  13.812  1.00  0.00    -0.180 NA
ATOM     30  H   ZIN A   1       2.855   9.748  14.137  1.00  0.00     0.146 HD
BRANCH  29  31
ATOM     31  S27 ZIN A   1       0.893   9.176  14.598  1.00  0.00     0.263 S 
ATOM     32  O28 ZIN A   1       0.982  10.520  14.901  1.00  0.00    -0.204 OA
ATOM     33  O29 ZIN A   1      -0.186   8.495  13.745  1.00  0.00    -0.204 OA
BRANCH  31  34
ATOM     34  C30 ZIN A   1       0.843   8.627  16.259  1.00  0.00     0.166 C 
ATOM     35  N39 ZIN A   1      -0.285   8.052  16.733  1.00  0.00    -0.247 NA
ATOM     36  C38 ZIN A   1      -0.355   7.953  18.069  1.00  0.00     0.134 C 
ATOM     37  C33 ZIN A   1       0.702   8.323  18.898  1.00  0.00     0.065 C 
ATOM     38  C32 ZIN A   1       1.747   9.083  18.398  1.00  0.00     0.021 C 
ATOM     39  C31 ZIN A   1       1.765   9.320  17.056  1.00  0.00     0.046 C 
BRANCH  37  40
ATOM     40  C34 ZIN A   1       0.796   7.734  20.255  1.00  0.00     0.418 C 
ATOM     41  F35 ZIN A   1       1.426   8.553  21.138  1.00  0.00    -0.166 F 
ATOM     42  F36 ZIN A   1      -0.410   7.426  20.786  1.00  0.00    -0.166 F 
ATOM     43  F37 ZIN A   1       1.522   6.584  20.229  1.00  0.00    -0.166 F 
ENDBRANCH  37  40
ENDBRANCH  31  34
ENDBRANCH  29  31
ENDBRANCH  25  29
ENDBRANCH   1  23
TORSDOF 12
ENDMDL
MODEL 2
REMARK VINA RESULT:    -7.097      2.175      3.489
REMARK INTER + INTRA:         -13.984
REMARK INTER:                  -9.239
REMARK INTRA:                  -4.745
REMARK UNBOUND:                -1.908
REMARK  12 active torsions:
REMARK  status: ('A' for Active; 'I' for Inactive)
REMARK    1  A    between atoms: C2_2  and  C3_3 
REMARK    2  A    between atoms: C3_3  and  C4_4 
REMARK    3  A    between atoms: C4_4  and  C5_5 
REMARK    4  A    between atoms: C5_5  and  C6_6 
REMARK    5  A    between atoms: C6_6  and  C7_7 
REMARK    6  A    between atoms: C16_16  and  C17_17 
REMARK    7  A    between atoms: C17_17  and  C19_18 
REMARK    8  A    between atoms: C17_17  and  C21_20 
REMARK    9  A    between atoms: C25_24  and  N26_25 
REMARK   10  A    between atoms: N26_25  and  S27_26 
REMARK   11  A    between atoms: S27_26  and  C30_29 
REMARK   12  A    between atoms: C33_32  and  C34_33 
ROOT
ATOM      1  C17 ZIN A   1       4.654   5.691  15.619  1.00  0.00     0.039 C 
ENDROOT
BRANCH   1   2
ATOM      2  C16 ZIN A   1       3.866   5.042  16.832  1.00  0.00     0.163 C 
ATOM      3  C14 ZIN A   1       2.447   4.582  16.634  1.00  0.00     0.144 C 
ATOM      4  C13 ZIN A   1       1.307   5.263  17.347  1.00  0.00     0.118 C 
ATOM      5  O15 ZIN A   1       2.193   3.627  15.890  1.00  0.00    -0.297 OA
ATOM      6  C4  ZIN A   1       1.677   6.257  18.492  1.00  0.00     0.077 C 
ATOM      7  O43 ZIN A   1       3.078   6.329  18.782  1.00  0.00    -0.309 OA
ATOM      8  C41 ZIN A   1       4.099   5.764  18.123  1.00  0.00     0.271 C 
ATOM      9  O42 ZIN A   1       5.226   5.813  18.616  1.00  0.00    -0.264 OA
BRANCH   6  10
ATOM     10  C3  ZIN A   1       1.210   7.650  18.117  1.00  0.00     0.038 C 
BRANCH  10  11
ATOM     11  C2  ZIN A   1       2.206   8.936  18.134  1.00  0.00    -0.002 C 
ATOM     12  C1  ZIN A   1       3.310   9.559  17.178  1.00  0.00     0.005 C 
ENDBRANCH  10  11
ENDBRANCH   6  10
BRANCH   6  13
ATOM     13  C5  ZIN A   1       0.902   5.921  19.777  1.00  0.00     0.043 C 
BRANCH  13  14
ATOM     14  C6  ZIN A   1       1.044   6.905  20.979  1.00  0.00     0.041 C 
BRANCH  14  15
ATOM     15  C7  ZIN A   1      -0.269   7.531  21.335  1.00  0.00    -0.058 A 
ATOM     16  C12 ZIN A   1      -0.432   8.642  22.186  1.00  0.00     0.007 A 
ATOM     17  C11 ZIN A   1      -1.711   9.177  22.370  1.00  0.00     0.001 A 
ATOM     18  C10 ZIN A   1      -2.797   8.627  21.689  1.00  0.00     0.000 A 
ATOM     19  C9  ZIN A   1      -2.625   7.506  20.886  1.00  0.00     0.001 A 
ATOM     20  C8  ZIN A   1      -1.375   6.943  20.744  1.00  0.00     0.007 A 
ENDBRANCH  14  15
ENDBRANCH  13  14
ENDBRANCH   6  13
ENDBRANCH   1   2
BRANCH   1  21
ATOM     21  C19 ZIN A   1       5.967   4.907  15.287  1.00  0.00     0.006 C 
ATOM     22  C20 ZIN A   1       7.288   5.652  15.499  1.00  0.00     0.006 C 
ENDBRANCH   1  21
BRANCH   1  23
ATOM     23  C21 ZIN A   1       3.850   6.093  14.379  1.00  0.00    -0.051 C 
ATOM     24  C40 ZIN A   1       3.139   7.290  14.291  1.00  0.00     0.032 C 
ATOM     25  C25 ZIN A   1       2.395   7.620  13.136  1.00  0.00     0.023 C 
ATOM     26  C24 ZIN A   1       2.450   6.815  12.015  1.00  0.00     0.024 C 
ATOM     27  C23 ZIN A   1       3.090   5.602  12.092  1.00  0.00     0.002 C 
ATOM     28  C22 ZIN A   1       3.765   5.236  13.263  1.00  0.00     0.007 C 
BRANCH  25  29
ATOM     29  N26 ZIN A   1       1.690   8.853  12.946  1.00  0.00    -0.180 NA
ATOM     30  H   ZIN A   1       1.999   9.640  13.493  1.00  0.00     0.146 HD
BRANCH  29  31
ATOM     31  S27 ZIN A   1       0.117   8.727  13.368  1.00  0.00     0.263 S 
ATOM     32  O28 ZIN A   1      -0.393   9.842  12.731  1.00  0.00    -0.204 OA
ATOM     33  O29 ZIN A   1      -0.285   7.266  13.128  1.00  0.00    -0.204 OA
BRANCH  31  34
ATOM     34  C30 ZIN A   1      -0.292   9.252  14.987  1.00  0.00     0.166 C 
ATOM     35  N39 ZIN A   1      -1.359   8.703  15.611  1.00  0.00    -0.247 NA
ATOM     36  C38 ZIN A   1      -1.789   9.369  16.693  1.00  0.00     0.134 C 
ATOM     37  C33 ZIN A   1      -1.121  10.484  17.194  1.00  0.00     0.065 C 
ATOM     38  C32 ZIN A   1      -0.163  11.126  16.426  1.00  0.00     0.021 C 
ATOM     39  C31 ZIN A   1       0.190  10.542  15.246  1.00  0.00     0.046 C 
BRANCH  37  40
ATOM     40  C34 ZIN A   1      -1.300  10.854  18.618  1.00  0.00     0.418 C 
ATOM     41  F35 ZIN A   1      -0.371  10.279  19.428  1.00  0.00    -0.166 F 
ATOM     42  F36 ZIN A   1      -1.246  12.188  18.833  1.00  0.00    -0.166 F 
ATOM     43  F37 ZIN A   1      -2.508  10.427  19.075  1.00  0.00    -0.166 F 
ENDBRANCH  37  40
ENDBRANCH  31  34
ENDBRANCH  29  31
ENDBRANCH  25  29
ENDBRANCH   1  23
TORSDOF 12
ENDMDL
MODEL 3
REMARK VINA RESULT:    -6.984      3.305      7.774
REMARK INTER + INTRA:         -13.791
REMARK INTER:                  -9.259
REMARK INTRA:                  -4.531
REMARK UNBOUND:                -1.908
REMARK  12 active torsions:
REMARK  status: ('A' for Active; 'I' for Inactive)
REMARK    1  A    between atoms: C2_2  and  C3_3 
REMARK    2  A    between atoms: C3_3  and  C4_4 
REMARK    3  A    between atoms: C4_4  and  C5_5 
REMARK    4  A    between atoms: C5_5  and  C6_6 
REMARK    5  A    between atoms: C6_6  and  C7_7 
REMARK    6  A    between atoms: C16_16  and  C17_17 
REMARK    7  A    between atoms: C17_17  and  C19_18 
REMARK    8  A    between atoms: C17_17  and  C21_20 
REMARK    9  A    between atoms: C25_24  and  N26_25 
REMARK   10  A    between atoms: N26_25  and  S27_26 
REMARK   11  A    between atoms: S27_26  and  C30_29 
REMARK   12  A    between atoms: C33_32  and  C34_33 
ROOT
ATOM      1  C17 ZIN A   1       0.601   8.692  19.314  1.00  0.00     0.039 C 
ENDROOT
BRANCH   1   2
ATOM      2  C16 ZIN A   1       1.150   9.261  17.940  1.00  0.00     0.163 C 
ATOM      3  C14 ZIN A   1       0.331   9.101  16.688  1.00  0.00     0.144 C 
ATOM      4  C13 ZIN A   1       0.811   8.228  15.556  1.00  0.00     0.118 C 
ATOM      5  O15 ZIN A   1      -0.749   9.692  16.562  1.00  0.00    -0.297 OA
ATOM      6  C4  ZIN A   1       2.290   7.738  15.616  1.00  0.00     0.077 C 
ATOM      7  O43 ZIN A   1       3.044   8.262  16.716  1.00  0.00    -0.309 OA
ATOM      8  C41 ZIN A   1       2.612   8.999  17.750  1.00  0.00     0.271 C 
ATOM      9  O42 ZIN A   1       3.440   9.488  18.519  1.00  0.00    -0.264 OA
BRANCH   6  10
ATOM     10  C3  ZIN A   1       2.314   6.225  15.718  1.00  0.00     0.038 C 
BRANCH  10  11
ATOM     11  C2  ZIN A   1       0.964   5.325  15.609  1.00  0.00    -0.002 C 
ATOM     12  C1  ZIN A   1       0.181   4.544  14.469  1.00  0.00     0.005 C 
ENDBRANCH  10  11
ENDBRANCH   6  10
BRANCH   6  13
ATOM     13  C5  ZIN A   1       3.021   8.048  14.298  1.00  0.00     0.043 C 
BRANCH  13  14
ATOM     14  C6  ZIN A   1       2.148   8.221  13.018  1.00  0.00     0.041 C 
BRANCH  14  15
ATOM     15  C7  ZIN A   1       2.119   6.969  12.198  1.00  0.00    -0.058 A 
ATOM     16  C12 ZIN A   1       2.996   5.877  12.354  1.00  0.00     0.007 A 
ATOM     17  C11 ZIN A   1       2.805   4.733  11.573  1.00  0.00     0.001 A 
ATOM     18  C10 ZIN A   1       1.738   4.675  10.678  1.00  0.00     0.000 A 
ATOM     19  C9  ZIN A   1       0.906   5.775  10.507  1.00  0.00     0.001 A 
ATOM     20  C8  ZIN A   1       1.123   6.925  11.235  1.00  0.00     0.007 A 
ENDBRANCH  14  15
ENDBRANCH  13  14
ENDBRANCH   6  13
ENDBRANCH   1   2
BRANCH   1  21
ATOM     21  C19 ZIN A   1      -0.602   9.532  19.857  1.00  0.00     0.006 C 
ATOM     22  C20 ZIN A   1      -0.959   9.349  21.336  1.00  0.00     0.006 C 
ENDBRANCH   1  21
BRANCH   1  23
ATOM     23  C21 ZIN A   1       0.393   7.178  19.426  1.00  0.00    -0.051 C 
ATOM     24  C40 ZIN A   1       1.376   6.309  19.900  1.00  0.00     0.032 C 
ATOM     25  C25 ZIN A   1       1.152   4.916  19.974  1.00  0.00     0.023 C 
ATOM     26  C24 ZIN A   1      -0.093   4.391  19.689  1.00  0.00     0.024 C 
ATOM     27  C23 ZIN A   1      -1.060   5.212  19.162  1.00  0.00     0.002 C 
ATOM     28  C22 ZIN A   1      -0.817   6.582  19.014  1.00  0.00     0.007 C 
BRANCH  25  29
ATOM     29  N26 ZIN A   1       2.087   3.969  20.504  1.00  0.00    -0.180 NA
ATOM     30  H   ZIN A   1       2.920   4.343  20.929  1.00  0.00     0.146 HD
BRANCH  29  31
ATOM     31  S27 ZIN A   1       2.694   2.995  19.342  1.00  0.00     0.263 S 
ATOM     32  O28 ZIN A   1       3.748   2.426  20.030  1.00  0.00    -0.204 OA
ATOM     33  O29 ZIN A   1       1.500   2.261  18.719  1.00  0.00    -0.204 OA
BRANCH  31  34
ATOM     34  C30 ZIN A   1       3.682   3.770  18.122  1.00  0.00     0.166 C 
ATOM     35  N39 ZIN A   1       4.072   3.063  17.038  1.00  0.00    -0.247 NA
ATOM     36  C38 ZIN A   1       5.067   3.615  16.327  1.00  0.00     0.134 C 
ATOM     37  C33 ZIN A   1       5.586   4.873  16.627  1.00  0.00     0.065 C 
ATOM     38  C32 ZIN A   1       5.305   5.470  17.845  1.00  0.00     0.021 C 
ATOM     39  C31 ZIN A   1       4.398   4.851  18.654  1.00  0.00     0.046 C 
BRANCH  37  40
ATOM     40  C34 ZIN A   1       6.272   5.642  15.563  1.00  0.00     0.418 C 
ATOM     41  F35 ZIN A   1       7.544   5.984  15.903  1.00  0.00    -0.166 F 
ATOM     42  F36 ZIN A   1       6.338   4.981  14.385  1.00  0.00    -0.166 F 
ATOM     43  F37 ZIN A   1       5.623   6.813  15.325  1.00  0.00    -0.166 F 
ENDBRANCH  37  40
ENDBRANCH  31  34
ENDBRANCH  29  31
ENDBRANCH  25  29
ENDBRANCH   1  23
TORSDOF 12
ENDMDL
MODEL 4
REMARK VINA RESULT:    -6.845     11.666     14.487
REMARK INTER + INTRA:         -13.554
REMARK INTER:                 -10.030
REMARK INTRA:                  -3.524
REMARK UNBOUND:                -1.908
REMARK  12 active torsions:
REMARK  status: ('A' for Active; 'I' for Inactive)
REMARK    1  A    between atoms: C2_2  and  C3_3 
REMARK    2  A    between atoms: C3_3  and  C4_4 
REMARK    3  A    between atoms: C4_4  and  C5_5 
REMARK    4  A    between atoms: C5_5  and  C6_6 
REMARK    5  A    between atoms: C6_6  and  C7_7 
REMARK    6  A    between atoms: C16_16  and  C17_17 
REMARK    7  A    between atoms: C17_17  and  C19_18 
REMARK    8  A    between atoms: C17_17  and  C21_20 
REMARK    9  A    between atoms: C25_24  and  N26_25 
REMARK   10  A    between atoms: N26_25  and  S27_26 
REMARK   11  A    between atoms: S27_26  and  C30_29 
REMARK   12  A    between atoms: C33_32  and  C34_33 
ROOT
ATOM      1  C17 ZIN A   1       4.864  19.386  12.843  1.00  0.00     0.039 C 
ENDROOT
BRANCH   1   2
ATOM      2  C16 ZIN A   1       4.854  18.249  13.947  1.00  0.00     0.163 C 
ATOM      3  C14 ZIN A   1       4.245  16.910  13.628  1.00  0.00     0.144 C 
ATOM      4  C13 ZIN A   1       2.997  16.441  14.332  1.00  0.00     0.118 C 
ATOM      5  O15 ZIN A   1       4.766  16.164  12.789  1.00  0.00    -0.297 OA
ATOM      6  C4  ZIN A   1       2.536  17.258  15.579  1.00  0.00     0.077 C 
ATOM      7  O43 ZIN A   1       3.424  18.318  15.955  1.00  0.00    -0.309 OA
ATOM      8  C41 ZIN A   1       4.509  18.769  15.308  1.00  0.00     0.271 C 
ATOM      9  O42 ZIN A   1       5.237  19.588  15.867  1.00  0.00    -0.264 OA
BRANCH   6  10
ATOM     10  C3  ZIN A   1       1.177  17.870  15.302  1.00  0.00     0.038 C 
BRANCH  10  11
ATOM     11  C2  ZIN A   1       0.699  19.271  15.979  1.00  0.00    -0.002 C 
ATOM     12  C1  ZIN A   1       0.978  20.819  15.758  1.00  0.00     0.005 C 
ENDBRANCH  10  11
ENDBRANCH   6  10
BRANCH   6  13
ATOM     13  C5  ZIN A   1       2.304  16.330  16.783  1.00  0.00     0.043 C 
BRANCH  13  14
ATOM     14  C6  ZIN A   1       3.527  16.025  17.701  1.00  0.00     0.041 C 
BRANCH  14  15
ATOM     15  C7  ZIN A   1       3.522  16.884  18.928  1.00  0.00    -0.058 A 
ATOM     16  C12 ZIN A   1       4.557  17.759  19.309  1.00  0.00     0.007 A 
ATOM     17  C11 ZIN A   1       4.387  18.565  20.439  1.00  0.00     0.001 A 
ATOM     18  C10 ZIN A   1       3.189  18.516  21.151  1.00  0.00     0.000 A 
ATOM     19  C9  ZIN A   1       2.193  17.618  20.786  1.00  0.00     0.001 A 
ATOM     20  C8  ZIN A   1       2.379  16.783  19.705  1.00  0.00     0.007 A 
ENDBRANCH  14  15
ENDBRANCH  13  14
ENDBRANCH   6  13
ENDBRANCH   1   2
BRANCH   1  21
ATOM     21  C19 ZIN A   1       3.765  20.468  13.106  1.00  0.00     0.006 C 
ATOM     22  C20 ZIN A   1       2.433  20.292  12.370  1.00  0.00     0.006 C 
ENDBRANCH   1  21
BRANCH   1  23
ATOM     23  C21 ZIN A   1       6.219  19.975  12.438  1.00  0.00    -0.051 C 
ATOM     24  C40 ZIN A   1       7.427  19.555  12.995  1.00  0.00     0.032 C 
ATOM     25  C25 ZIN A   1       8.656  20.133  12.607  1.00  0.00     0.023 C 
ATOM     26  C24 ZIN A   1       8.704  21.049  11.576  1.00  0.00     0.024 C 
ATOM     27  C23 ZIN A   1       7.528  21.528  11.050  1.00  0.00     0.002 C 
ATOM     28  C22 ZIN A   1       6.302  21.013  11.487  1.00  0.00     0.007 C 
BRANCH  25  29
ATOM     29  N26 ZIN A   1       9.940  19.715  13.088  1.00  0.00    -0.180 NA
ATOM     30  H   ZIN A   1      10.000  18.785  13.471  1.00  0.00     0.146 HD
BRANCH  29  31
ATOM     31  S27 ZIN A   1      10.456  20.640  14.332  1.00  0.00     0.263 S 
ATOM     32  O28 ZIN A   1      11.509  19.870  14.785  1.00  0.00    -0.204 OA
ATOM     33  O29 ZIN A   1      10.530  22.079  13.805  1.00  0.00    -0.204 OA
BRANCH  31  34
ATOM     34  C30 ZIN A   1       9.521  20.541  15.808  1.00  0.00     0.166 C 
ATOM     35  N39 ZIN A   1       8.474  21.378  15.986  1.00  0.00    -0.247 NA
ATOM     36  C38 ZIN A   1       8.018  21.458  17.246  1.00  0.00     0.134 C 
ATOM     37  C33 ZIN A   1       8.521  20.659  18.271  1.00  0.00     0.065 C 
ATOM     38  C32 ZIN A   1       9.710  19.968  18.097  1.00  0.00     0.021 C 
ATOM     39  C31 ZIN A   1      10.272  19.990  16.855  1.00  0.00     0.046 C 
BRANCH  37  40
ATOM     40  C34 ZIN A   1       7.680  20.400  19.463  1.00  0.00     0.418 C 
ATOM     41  F35 ZIN A   1       8.218  20.910  20.602  1.00  0.00    -0.166 F 
ATOM     42  F36 ZIN A   1       6.430  20.904  19.351  1.00  0.00    -0.166 F 
ATOM     43  F37 ZIN A   1       7.552  19.063  19.677  1.00  0.00    -0.166 F 
ENDBRANCH  37  40
ENDBRANCH  31  34
ENDBRANCH  29  31
ENDBRANCH  25  29
ENDBRANCH   1  23
TORSDOF 12
ENDMDL
MODEL 5
REMARK VINA RESULT:    -6.805     10.436     14.126
REMARK INTER + INTRA:         -13.487
REMARK INTER:                  -9.001
REMARK INTRA:                  -4.486
REMARK UNBOUND:                -1.908
REMARK  12 active torsions:
REMARK  status: ('A' for Active; 'I' for Inactive)
REMARK    1  A    between atoms: C2_2  and  C3_3 
REMARK    2  A    between atoms: C3_3  and  C4_4 
REMARK    3  A    between atoms: C4_4  and  C5_5 
REMARK    4  A    between atoms: C5_5  and  C6_6 
REMARK    5  A    between atoms: C6_6  and  C7_7 
REMARK    6  A    between atoms: C16_16  and  C17_17 
REMARK    7  A    between atoms: C17_17  and  C19_18 
REMARK    8  A    between atoms: C17_17  and  C21_20 
REMARK    9  A    between atoms: C25_24  and  N26_25 
REMARK   10  A    between atoms: N26_25  and  S27_26 
REMARK   11  A    between atoms: S27_26  and  C30_29 
REMARK   12  A    between atoms: C33_32  and  C34_33 
ROOT
ATOM      1  C17 ZIN A   1       8.292  19.595  16.939  1.00  0.00     0.039 C 
ENDROOT
BRANCH   1   2
ATOM      2  C16 ZIN A   1       7.717  20.280  15.630  1.00  0.00     0.163 C 
ATOM      3  C14 ZIN A   1       6.370  20.948  15.671  1.00  0.00     0.144 C 
ATOM      4  C13 ZIN A   1       5.209  20.397  14.882  1.00  0.00     0.118 C 
ATOM      5  O15 ZIN A   1       6.194  21.970  16.346  1.00  0.00    -0.297 OA
ATOM      6  C4  ZIN A   1       5.530  19.298  13.822  1.00  0.00     0.077 C 
ATOM      7  O43 ZIN A   1       6.925  19.010  13.670  1.00  0.00    -0.309 OA
ATOM      8  C41 ZIN A   1       7.956  19.461  14.399  1.00  0.00     0.271 C 
ATOM      9  O42 ZIN A   1       9.102  19.224  14.019  1.00  0.00    -0.264 OA
BRANCH   6  10
ATOM     10  C3  ZIN A   1       4.831  18.009  14.209  1.00  0.00     0.038 C 
BRANCH  10  11
ATOM     11  C2  ZIN A   1       4.745  16.731  13.206  1.00  0.00    -0.002 C 
ATOM     12  C1  ZIN A   1       3.653  16.072  12.260  1.00  0.00     0.005 C 
ENDBRANCH  10  11
ENDBRANCH   6  10
BRANCH   6  13
ATOM     13  C5  ZIN A   1       4.929  19.668  12.455  1.00  0.00     0.043 C 
BRANCH  13  14
ATOM     14  C6  ZIN A   1       3.594  20.475  12.452  1.00  0.00     0.041 C 
BRANCH  14  15
ATOM     15  C7  ZIN A   1       2.414  19.587  12.203  1.00  0.00    -0.058 A 
ATOM     16  C12 ZIN A   1       2.011  19.110  10.940  1.00  0.00     0.007 A 
ATOM     17  C11 ZIN A   1       0.936  18.220  10.859  1.00  0.00     0.001 A 
ATOM     18  C10 ZIN A   1       0.301  17.792  12.025  1.00  0.00     0.000 A 
ATOM     19  C9  ZIN A   1       0.686  18.303  13.260  1.00  0.00     0.001 A 
ATOM     20  C8  ZIN A   1       1.709  19.222  13.339  1.00  0.00     0.007 A 
ENDBRANCH  14  15
ENDBRANCH  13  14
ENDBRANCH   6  13
ENDBRANCH   1   2
BRANCH   1  21
ATOM     21  C19 ZIN A   1       9.646  20.236  17.390  1.00  0.00     0.006 C 
ATOM     22  C20 ZIN A   1      10.006  21.591  16.774  1.00  0.00     0.006 C 
ENDBRANCH   1  21
BRANCH   1  23
ATOM     23  C21 ZIN A   1       7.319  19.339  18.095  1.00  0.00    -0.051 C 
ATOM     24  C40 ZIN A   1       6.396  18.294  18.093  1.00  0.00     0.032 C 
ATOM     25  C25 ZIN A   1       5.504  18.098  19.171  1.00  0.00     0.023 C 
ATOM     26  C24 ZIN A   1       5.605  18.870  20.311  1.00  0.00     0.024 C 
ATOM     27  C23 ZIN A   1       6.461  19.945  20.319  1.00  0.00     0.002 C 
ATOM     28  C22 ZIN A   1       7.293  20.188  19.220  1.00  0.00     0.007 C 
BRANCH  25  29
ATOM     29  N26 ZIN A   1       4.571  17.016  19.270  1.00  0.00    -0.180 NA
ATOM     30  H   ZIN A   1       4.664  16.273  18.595  1.00  0.00     0.146 HD
BRANCH  29  31
ATOM     31  S27 ZIN A   1       3.032  17.512  19.033  1.00  0.00     0.263 S 
ATOM     32  O28 ZIN A   1       2.403  16.850  20.068  1.00  0.00    -0.204 OA
ATOM     33  O29 ZIN A   1       3.092  19.030  18.812  1.00  0.00    -0.204 OA
BRANCH  31  34
ATOM     34  C30 ZIN A   1       2.150  16.709  17.752  1.00  0.00     0.166 C 
ATOM     35  N39 ZIN A   1       0.889  16.280  17.985  1.00  0.00    -0.247 NA
ATOM     36  C38 ZIN A   1       0.409  15.411  17.083  1.00  0.00     0.134 C 
ATOM     37  C33 ZIN A   1       1.120  15.058  15.938  1.00  0.00     0.065 C 
ATOM     38  C32 ZIN A   1       2.469  15.357  15.835  1.00  0.00     0.021 C 
ATOM     39  C31 ZIN A   1       3.018  16.124  16.820  1.00  0.00     0.046 C 
BRANCH  37  40
ATOM     40  C34 ZIN A   1       0.382  14.544  14.760  1.00  0.00     0.418 C 
ATOM     41  F35 ZIN A   1       0.932  14.943  13.583  1.00  0.00    -0.166 F 
ATOM     42  F36 ZIN A   1       0.306  13.193  14.728  1.00  0.00    -0.166 F 
ATOM     43  F37 ZIN A   1      -0.895  15.012  14.752  1.00  0.00    -0.166 F 
ENDBRANCH  37  40
ENDBRANCH  31  34
ENDBRANCH  29  31
ENDBRANCH  25  29
ENDBRANCH   1  23
TORSDOF 12
ENDMDL
