MODEL 1
REMARK VINA RESULT:    -7.417      0.000      0.000
REMARK INTER + INTRA:         -16.659
REMARK INTER:                 -13.562
REMARK INTRA:                  -3.097
REMARK UNBOUND:                -3.389
REMARK  14 active torsions:
REMARK  status: ('A' for Active; 'I' for Inactive)
REMARK    1  A    between atoms: C2_2  and  N5_5 
REMARK       I    between atoms: N5_5  and  C6_6 
REMARK    2  A    between atoms: C6_6  and  C8_8 
REMARK    3  A    between atoms: N20_17  and  C22_19 
REMARK    4  A    between atoms: C22_19  and  C23_20 
REMARK    5  A    between atoms: C23_20  and  O25_21 
REMARK    6  A    between atoms: C23_20  and  C26_22 
REMARK    7  A    between atoms: C26_22  and  C28_23 
REMARK    8  A    between atoms: C26_22  and  N35_30 
REMARK    9  A    between atoms: C28_23  and  C29_24 
REMARK       I    between atoms: N35_30  and  C36_31 
REMARK   10  A    between atoms: C36_31  and  C38_33 
REMARK   11  A    between atoms: C38_33  and  C40_34 
REMARK   12  A    between atoms: C38_33  and  N44_38 
REMARK   13  A    between atoms: C40_34  and  C41_35 
REMARK       I    between atoms: C41_35  and  N42_36 
REMARK       I    between atoms: N44_38  and  C45_39 
REMARK   14  A    between atoms: C45_39  and  C47_41 
ROOT
ATOM      1  C26 ZIN A   1       5.659   1.491   7.664  1.00  0.00     0.119 C 
ENDROOT
BRANCH   1   2
ATOM      2  C23 ZIN A   1       6.288   1.164   9.117  1.00  0.00     0.167 C 
BRANCH   2   3
ATOM      3  C22 ZIN A   1       5.361   1.336  10.373  1.00  0.00     0.269 C 
BRANCH   3   4
ATOM      4  N20 ZIN A   1       5.401   0.143  11.434  1.00  0.00    -0.055 N 
ATOM      5  C8  ZIN A   1       4.079  -0.658  11.535  1.00  0.00     0.279 C 
ATOM      6  C10 ZIN A   1       3.070   0.059  12.465  1.00  0.00     0.048 C 
ATOM      7  C11 ZIN A   1       3.468   1.340  13.207  1.00  0.00    -0.006 C 
ATOM      8  C17 ZIN A   1       4.980   1.505  13.452  1.00  0.00     0.016 C 
ATOM      9  C13 ZIN A   1       2.620   1.501  14.498  1.00  0.00     0.005 C 
ATOM     10  C16 ZIN A   1       5.308   1.819  14.907  1.00  0.00     0.007 C 
ATOM     11  C19 ZIN A   1       5.866   0.426  12.839  1.00  0.00     0.241 C 
ATOM     12  C15 ZIN A   1       4.689   0.810  15.856  1.00  0.00     0.000 C 
ATOM     13  C14 ZIN A   1       3.168   0.762  15.724  1.00  0.00     0.000 C 
ATOM     14  H21 ZIN A   1       6.110  -0.518  11.058  1.00  0.00     0.281 HD
BRANCH   5  15
ATOM     15  C6  ZIN A   1       4.252  -2.148  12.050  1.00  0.00     0.249 C 
ATOM     16  N5  ZIN A   1       3.998  -3.109  11.083  1.00  0.00    -0.351 N 
ATOM     17  H66 ZIN A   1       3.749  -2.784  10.156  1.00  0.00     0.163 HD
ATOM     18  O7  ZIN A   1       4.556  -2.389  13.216  1.00  0.00    -0.271 OA
BRANCH  16  19
ATOM     19  C2  ZIN A   1       3.980  -4.589  11.206  1.00  0.00     0.022 C 
ATOM     20  C1  ZIN A   1       3.439  -5.143   9.868  1.00  0.00     0.037 C 
ATOM     21  C3  ZIN A   1       3.050  -5.079  12.328  1.00  0.00     0.037 C 
ATOM     22  C4  ZIN A   1       5.387  -5.169  11.394  1.00  0.00     0.037 C 
ENDBRANCH  16  19
ENDBRANCH   5  15
ENDBRANCH   3   4
ENDBRANCH   2   3
BRANCH   2  23
ATOM     23  O25 ZIN A   1       6.636  -0.226   9.216  1.00  0.00    -0.392 OA
ATOM     24  H81 ZIN A   1       6.041  -0.658   9.869  1.00  0.00     0.210 HD
ENDBRANCH   2  23
ENDBRANCH   1   2
BRANCH   1  25
ATOM     25  C28 ZIN A   1       6.182   2.707   6.831  1.00  0.00     0.066 C 
BRANCH  25  26
ATOM     26  C29 ZIN A   1       5.682   4.102   7.136  1.00  0.00    -0.056 C 
ATOM     27  C34 ZIN A   1       5.577   5.066   6.126  1.00  0.00     0.007 C 
ATOM     28  C33 ZIN A   1       5.227   6.387   6.426  1.00  0.00     0.001 C 
ATOM     29  C32 ZIN A   1       4.854   6.738   7.720  1.00  0.00     0.000 C 
ATOM     30  C31 ZIN A   1       4.835   5.765   8.710  1.00  0.00     0.001 C 
ATOM     31  C30 ZIN A   1       5.251   4.468   8.405  1.00  0.00     0.007 C 
ENDBRANCH  25  26
ENDBRANCH   1  25
BRANCH   1  32
ATOM     32  N35 ZIN A   1       5.626   0.290   6.765  1.00  0.00    -0.352 N 
ATOM     33  C36 ZIN A   1       4.573  -0.608   6.749  1.00  0.00     0.241 C 
ATOM     34  O37 ZIN A   1       3.551  -0.384   7.400  1.00  0.00    -0.271 OA
ATOM     35  H89 ZIN A   1       6.239   0.275   5.949  1.00  0.00     0.163 HD
BRANCH  33  36
ATOM     36  C38 ZIN A   1       4.757  -1.904   5.901  1.00  0.00     0.185 C 
BRANCH  36  37
ATOM     37  C40 ZIN A   1       6.244  -2.307   5.909  1.00  0.00     0.137 C 
BRANCH  37  38
ATOM     38  C41 ZIN A   1       6.591  -3.264   7.042  1.00  0.00     0.217 C 
ATOM     39  N42 ZIN A   1       7.161  -4.448   6.624  1.00  0.00    -0.370 N 
ATOM     40  H92 ZIN A   1       7.419  -5.090   7.365  1.00  0.00     0.159 HD
ATOM     41  H93 ZIN A   1       7.680  -4.520   5.765  1.00  0.00     0.159 HD
ATOM     42  O43 ZIN A   1       6.348  -3.075   8.198  1.00  0.00    -0.274 OA
ENDBRANCH  37  38
ENDBRANCH  36  37
BRANCH  36  43
ATOM     43  N44 ZIN A   1       3.947  -3.032   6.438  1.00  0.00    -0.342 N 
ATOM     44  C45 ZIN A   1       2.799  -3.500   5.805  1.00  0.00     0.271 C 
ATOM     45  O46 ZIN A   1       2.392  -2.969   4.769  1.00  0.00    -0.266 OA
ATOM     46  H94 ZIN A   1       4.143  -3.339   7.384  1.00  0.00     0.163 HD
BRANCH  44  47
ATOM     47  C47 ZIN A   1       2.035  -4.647   6.452  1.00  0.00     0.125 A 
ATOM     48  N56 ZIN A   1       2.602  -5.875   6.311  1.00  0.00    -0.243 NA
ATOM     49  C55 ZIN A   1       1.922  -6.963   6.720  1.00  0.00     0.068 A 
ATOM     50  C50 ZIN A   1       0.632  -6.883   7.282  1.00  0.00    -0.007 A 
ATOM     51  C54 ZIN A   1       2.485  -8.223   6.551  1.00  0.00     0.032 A 
ATOM     52  C49 ZIN A   1       0.112  -5.599   7.516  1.00  0.00     0.016 A 
ATOM     53  C51 ZIN A   1      -0.088  -8.066   7.561  1.00  0.00     0.014 A 
ATOM     54  C48 ZIN A   1       0.820  -4.465   7.103  1.00  0.00     0.038 A 
ATOM     55  C52 ZIN A   1       0.478  -9.318   7.316  1.00  0.00     0.001 A 
ATOM     56  C53 ZIN A   1       1.781  -9.397   6.840  1.00  0.00     0.002 A 
ENDBRANCH  44  47
ENDBRANCH  36  43
ENDBRANCH  33  36
ENDBRANCH   1  32
TORSDOF 14
ENDMDL
MODEL 2
REMARK VINA RESULT:    -7.295     14.908     20.385
REMARK INTER + INTRA:         -16.441
REMARK INTER:                 -12.159
REMARK INTRA:                  -4.282
REMARK UNBOUND:                -3.389
REMARK  14 active torsions:
REMARK  status: ('A' for Active; 'I' for Inactive)
REMARK    1  A    between atoms: C2_2  and  N5_5 
REMARK       I    between atoms: N5_5  and  C6_6 
REMARK    2  A    between atoms: C6_6  and  C8_8 
REMARK    3  A    between atoms: N20_17  and  C22_19 
REMARK    4  A    between atoms: C22_19  and  C23_20 
REMARK    5  A    between atoms: C23_20  and  O25_21 
REMARK    6  A    between atoms: C23_20  and  C26_22 
REMARK    7  A    between atoms: C26_22  and  C28_23 
REMARK    8  A    between atoms: C26_22  and  N35_30 
REMARK    9  A    between atoms: C28_23  and  C29_24 
REMARK       I    between atoms: N35_30  and  C36_31 
REMARK   10  A    between atoms: C36_31  and  C38_33 
REMARK   11  A    between atoms: C38_33  and  C40_34 
REMARK   12  A    between atoms: C38_33  and  N44_38 
REMARK   13  A    between atoms: C40_34  and  C41_35 
REMARK       I    between atoms: C41_35  and  N42_36 
REMARK       I    between atoms: N44_38  and  C45_39 
REMARK   14  A    between atoms: C45_39  and  C47_41 
ROOT
ATOM      1  C26 ZIN A   1       2.221  12.797  16.778  1.00  0.00     0.119 C 
ENDROOT
BRANCH   1   2
ATOM      2  C23 ZIN A   1       2.239  12.718  15.163  1.00  0.00     0.167 C 
BRANCH   2   3
ATOM      3  C22 ZIN A   1       2.665  14.006  14.371  1.00  0.00     0.269 C 
BRANCH   3   4
ATOM      4  N20 ZIN A   1       2.689  13.867  12.781  1.00  0.00    -0.055 N 
ATOM      5  C8  ZIN A   1       4.091  14.057  12.152  1.00  0.00     0.279 C 
ATOM      6  C10 ZIN A   1       4.413  15.561  11.968  1.00  0.00     0.048 C 
ATOM      7  C11 ZIN A   1       3.369  16.629  12.313  1.00  0.00    -0.006 C 
ATOM      8  C17 ZIN A   1       1.907  16.150  12.255  1.00  0.00     0.016 C 
ATOM      9  C13 ZIN A   1       3.623  17.918  11.486  1.00  0.00     0.005 C 
ATOM     10  C16 ZIN A   1       1.022  17.067  11.417  1.00  0.00     0.007 C 
ATOM     11  C19 ZIN A   1       1.712  14.668  11.959  1.00  0.00     0.241 C 
ATOM     12  C15 ZIN A   1       1.597  17.295  10.032  1.00  0.00     0.000 C 
ATOM     13  C14 ZIN A   1       2.990  17.921  10.089  1.00  0.00     0.000 C 
ATOM     14  H21 ZIN A   1       2.425  12.878  12.600  1.00  0.00     0.281 HD
BRANCH   5  15
ATOM     15  C6  ZIN A   1       4.286  13.336  10.752  1.00  0.00     0.249 C 
ATOM     16  N5  ZIN A   1       4.055  14.159   9.660  1.00  0.00    -0.351 N 
ATOM     17  H66 ZIN A   1       3.807  15.124   9.847  1.00  0.00     0.163 HD
ATOM     18  O7  ZIN A   1       4.586  12.147  10.683  1.00  0.00    -0.271 OA
BRANCH  16  19
ATOM     19  C2  ZIN A   1       4.062  13.828   8.212  1.00  0.00     0.022 C 
ATOM     20  C1  ZIN A   1       3.631  15.108   7.458  1.00  0.00     0.037 C 
ATOM     21  C3  ZIN A   1       3.065  12.713   7.854  1.00  0.00     0.037 C 
ATOM     22  C4  ZIN A   1       5.464  13.464   7.710  1.00  0.00     0.037 C 
ENDBRANCH  16  19
ENDBRANCH   5  15
ENDBRANCH   3   4
ENDBRANCH   2   3
BRANCH   2  23
ATOM     23  O25 ZIN A   1       3.226  11.776  14.714  1.00  0.00    -0.392 OA
ATOM     24  H81 ZIN A   1       4.119  12.170  14.832  1.00  0.00     0.210 HD
ENDBRANCH   2  23
ENDBRANCH   1   2
BRANCH   1  25
ATOM     25  C28 ZIN A   1       2.958  11.711  17.631  1.00  0.00     0.066 C 
BRANCH  25  26
ATOM     26  C29 ZIN A   1       2.186  10.892  18.641  1.00  0.00    -0.056 C 
ATOM     27  C34 ZIN A   1       0.815  11.095  18.836  1.00  0.00     0.007 C 
ATOM     28  C33 ZIN A   1       0.126  10.421  19.850  1.00  0.00     0.001 C 
ATOM     29  C32 ZIN A   1       0.766   9.441  20.603  1.00  0.00     0.000 C 
ATOM     30  C31 ZIN A   1       2.094   9.140  20.340  1.00  0.00     0.001 C 
ATOM     31  C30 ZIN A   1       2.783   9.870  19.370  1.00  0.00     0.007 C 
ENDBRANCH  25  26
ENDBRANCH   1  25
BRANCH   1  32
ATOM     32  N35 ZIN A   1       2.621  14.147  17.295  1.00  0.00    -0.352 N 
ATOM     33  C36 ZIN A   1       1.786  14.931  18.073  1.00  0.00     0.241 C 
ATOM     34  O37 ZIN A   1       0.708  14.488  18.474  1.00  0.00    -0.271 OA
ATOM     35  H89 ZIN A   1       3.614  14.382  17.328  1.00  0.00     0.163 HD
BRANCH  33  36
ATOM     36  C38 ZIN A   1       2.262  16.383  18.385  1.00  0.00     0.185 C 
BRANCH  36  37
ATOM     37  C40 ZIN A   1       3.708  16.339  18.914  1.00  0.00     0.137 C 
BRANCH  37  38
ATOM     38  C41 ZIN A   1       4.336  17.722  19.033  1.00  0.00     0.217 C 
ATOM     39  N42 ZIN A   1       5.599  17.816  18.489  1.00  0.00    -0.370 N 
ATOM     40  H92 ZIN A   1       6.026  18.734  18.539  1.00  0.00     0.159 HD
ATOM     41  H93 ZIN A   1       5.908  17.217  17.742  1.00  0.00     0.159 HD
ATOM     42  O43 ZIN A   1       3.841  18.653  19.598  1.00  0.00    -0.274 OA
ENDBRANCH  37  38
ENDBRANCH  36  37
BRANCH  36  43
ATOM     43  N44 ZIN A   1       2.215  17.249  17.174  1.00  0.00    -0.342 N 
ATOM     44  C45 ZIN A   1       1.427  18.394  17.101  1.00  0.00     0.271 C 
ATOM     45  O46 ZIN A   1       0.706  18.722  18.045  1.00  0.00    -0.266 OA
ATOM     46  H94 ZIN A   1       2.632  16.887  16.324  1.00  0.00     0.163 HD
BRANCH  44  47
ATOM     47  C47 ZIN A   1       1.440  19.196  15.806  1.00  0.00     0.125 A 
ATOM     48  N56 ZIN A   1       0.270  19.201  15.115  1.00  0.00    -0.243 NA
ATOM     49  C55 ZIN A   1       0.234  19.757  13.889  1.00  0.00     0.068 A 
ATOM     50  C50 ZIN A   1       1.371  20.328  13.282  1.00  0.00    -0.007 A 
ATOM     51  C54 ZIN A   1      -0.954  19.740  13.166  1.00  0.00     0.032 A 
ATOM     52  C49 ZIN A   1       2.541  20.406  14.056  1.00  0.00     0.016 A 
ATOM     53  C51 ZIN A   1       1.306  20.767  11.941  1.00  0.00     0.014 A 
ATOM     54  C48 ZIN A   1       2.579  19.840  15.335  1.00  0.00     0.038 A 
ATOM     55  C52 ZIN A   1       0.116  20.673  11.218  1.00  0.00     0.001 A 
ATOM     56  C53 ZIN A   1      -1.026  20.188  11.842  1.00  0.00     0.002 A 
ENDBRANCH  44  47
ENDBRANCH  36  43
ENDBRANCH  33  36
ENDBRANCH   1  32
TORSDOF 14
ENDMDL
MODEL 3
REMARK VINA RESULT:    -7.084      1.938      8.878
REMARK INTER + INTRA:         -16.063
REMARK INTER:                 -12.985
REMARK INTRA:                  -3.078
REMARK UNBOUND:                -3.389
REMARK  14 active torsions:
REMARK  status: ('A' for Active; 'I' for Inactive)
REMARK    1  A    between atoms: C2_2  and  N5_5 
REMARK       I    between atoms: N5_5  and  C6_6 
REMARK    2  A    between atoms: C6_6  and  C8_8 
REMARK    3  A    between atoms: N20_17  and  C22_19 
REMARK    4  A    between atoms: C22_19  and  C23_20 
REMARK    5  A    between atoms: C23_20  and  O25_21 
REMARK    6  A    between atoms: C23_20  and  C26_22 
REMARK    7  A    between atoms: C26_22  and  C28_23 
REMARK    8  A    between atoms: C26_22  and  N35_30 
REMARK    9  A    between atoms: C28_23  and  C29_24 
REMARK       I    between atoms: N35_30  and  C36_31 
REMARK   10  A    between atoms: C36_31  and  C38_33 
REMARK   11  A    between atoms: C38_33  and  C40_34 
REMARK   12  A    between atoms: C38_33  and  N44_38 
REMARK   13  A    between atoms: C40_34  and  C41_35 
REMARK       I    between atoms: C41_35  and  N42_36 
REMARK       I    between atoms: N44_38  and  C45_39 
REMARK   14  A    between atoms: C45_39  and  C47_41 
ROOT
ATOM      1  C26 ZIN A   1       4.453  -2.187   6.775  1.00  0.00     0.119 C 
ENDROOT
BRANCH   1   2
ATOM      2  C23 ZIN A   1       3.019  -1.942   6.068  1.00  0.00     0.167 C 
BRANCH   2   3
ATOM      3  C22 ZIN A   1       2.035  -3.161   5.965  1.00  0.00     0.269 C 
BRANCH   3   4
ATOM      4  N20 ZIN A   1       1.820  -3.994   7.310  1.00  0.00    -0.055 N 
ATOM      5  C8  ZIN A   1       3.029  -4.879   7.705  1.00  0.00     0.279 C 
ATOM      6  C10 ZIN A   1       3.003  -6.222   6.936  1.00  0.00     0.048 C 
ATOM      7  C11 ZIN A   1       1.838  -6.563   6.000  1.00  0.00    -0.006 C 
ATOM      8  C17 ZIN A   1       0.514  -5.846   6.325  1.00  0.00     0.016 C 
ATOM      9  C13 ZIN A   1       1.682  -8.102   5.871  1.00  0.00     0.005 C 
ATOM     10  C16 ZIN A   1      -0.666  -6.807   6.421  1.00  0.00     0.007 C 
ATOM     11  C19 ZIN A   1       0.578  -4.834   7.463  1.00  0.00     0.241 C 
ATOM     12  C15 ZIN A   1      -0.389  -7.946   7.383  1.00  0.00     0.000 C 
ATOM     13  C14 ZIN A   1       0.837  -8.758   6.969  1.00  0.00     0.000 C 
ATOM     14  H21 ZIN A   1       1.735  -3.274   8.055  1.00  0.00     0.281 HD
BRANCH   5  15
ATOM     15  C6  ZIN A   1       3.129  -5.200   9.255  1.00  0.00     0.249 C 
ATOM     16  N5  ZIN A   1       3.633  -4.154  10.014  1.00  0.00    -0.351 N 
ATOM     17  H66 ZIN A   1       3.869  -3.296   9.527  1.00  0.00     0.163 HD
ATOM     18  O7  ZIN A   1       2.806  -6.298   9.702  1.00  0.00    -0.271 OA
BRANCH  16  19
ATOM     19  C2  ZIN A   1       3.942  -4.104  11.466  1.00  0.00     0.022 C 
ATOM     20  C1  ZIN A   1       5.236  -4.923  11.677  1.00  0.00     0.037 C 
ATOM     21  C3  ZIN A   1       2.837  -4.739  12.328  1.00  0.00     0.037 C 
ATOM     22  C4  ZIN A   1       4.231  -2.677  11.946  1.00  0.00     0.037 C 
ENDBRANCH  16  19
ENDBRANCH   5  15
ENDBRANCH   3   4
ENDBRANCH   2   3
BRANCH   2  23
ATOM     23  O25 ZIN A   1       2.233  -1.012   6.831  1.00  0.00    -0.392 OA
ATOM     24  H81 ZIN A   1       1.648  -0.512   6.218  1.00  0.00     0.210 HD
ENDBRANCH   2  23
ENDBRANCH   1   2
BRANCH   1  25
ATOM     25  C28 ZIN A   1       5.675  -2.683   5.933  1.00  0.00     0.066 C 
BRANCH  25  26
ATOM     26  C29 ZIN A   1       5.654  -4.062   5.311  1.00  0.00    -0.056 C 
ATOM     27  C34 ZIN A   1       4.896  -4.323   4.164  1.00  0.00     0.007 C 
ATOM     28  C33 ZIN A   1       4.782  -5.623   3.658  1.00  0.00     0.001 C 
ATOM     29  C32 ZIN A   1       5.525  -6.660   4.213  1.00  0.00     0.000 C 
ATOM     30  C31 ZIN A   1       6.377  -6.394   5.275  1.00  0.00     0.001 C 
ATOM     31  C30 ZIN A   1       6.426  -5.105   5.809  1.00  0.00     0.007 C 
ENDBRANCH  25  26
ENDBRANCH   1  25
BRANCH   1  32
ATOM     32  N35 ZIN A   1       4.899  -1.016   7.598  1.00  0.00    -0.352 N 
ATOM     33  C36 ZIN A   1       5.094   0.246   7.065  1.00  0.00     0.241 C 
ATOM     34  O37 ZIN A   1       4.789   0.485   5.895  1.00  0.00    -0.271 OA
ATOM     35  H89 ZIN A   1       4.785  -1.060   8.612  1.00  0.00     0.163 HD
BRANCH  33  36
ATOM     36  C38 ZIN A   1       5.733   1.322   7.998  1.00  0.00     0.185 C 
BRANCH  36  37
ATOM     37  C40 ZIN A   1       5.672   2.695   7.301  1.00  0.00     0.137 C 
BRANCH  37  38
ATOM     38  C41 ZIN A   1       5.976   3.850   8.246  1.00  0.00     0.217 C 
ATOM     39  N42 ZIN A   1       5.009   4.834   8.263  1.00  0.00    -0.370 N 
ATOM     40  H92 ZIN A   1       5.183   5.601   8.902  1.00  0.00     0.159 HD
ATOM     41  H93 ZIN A   1       4.047   4.644   8.037  1.00  0.00     0.159 HD
ATOM     42  O43 ZIN A   1       6.980   3.967   8.887  1.00  0.00    -0.274 OA
ENDBRANCH  37  38
ENDBRANCH  36  37
BRANCH  36  43
ATOM     43  N44 ZIN A   1       5.024   1.409   9.304  1.00  0.00    -0.342 N 
ATOM     44  C45 ZIN A   1       5.591   0.968  10.496  1.00  0.00     0.271 C 
ATOM     45  O46 ZIN A   1       6.712   0.457  10.507  1.00  0.00    -0.266 OA
ATOM     46  H94 ZIN A   1       4.035   1.628   9.284  1.00  0.00     0.163 HD
BRANCH  44  47
ATOM     47  C47 ZIN A   1       4.768   1.087  11.772  1.00  0.00     0.125 A 
ATOM     48  N56 ZIN A   1       5.484   1.302  12.907  1.00  0.00    -0.243 NA
ATOM     49  C55 ZIN A   1       4.855   1.270  14.097  1.00  0.00     0.068 A 
ATOM     50  C50 ZIN A   1       3.475   1.008  14.218  1.00  0.00    -0.007 A 
ATOM     51  C54 ZIN A   1       5.589   1.462  15.263  1.00  0.00     0.032 A 
ATOM     52  C49 ZIN A   1       2.737   0.894  13.028  1.00  0.00     0.016 A 
ATOM     53  C51 ZIN A   1       2.900   0.846  15.497  1.00  0.00     0.014 A 
ATOM     54  C48 ZIN A   1       3.385   0.939  11.788  1.00  0.00     0.038 A 
ATOM     55  C52 ZIN A   1       3.677   0.976  16.649  1.00  0.00     0.001 A 
ATOM     56  C53 ZIN A   1       5.019   1.317  16.533  1.00  0.00     0.002 A 
ENDBRANCH  44  47
ENDBRANCH  36  43
ENDBRANCH  33  36
ENDBRANCH   1  32
TORSDOF 14
ENDMDL
MODEL 4
REMARK VINA RESULT:    -6.977     12.432     17.070
REMARK INTER + INTRA:         -15.872
REMARK INTER:                 -12.783
REMARK INTRA:                  -3.089
REMARK UNBOUND:                -3.389
REMARK  14 active torsions:
REMARK  status: ('A' for Active; 'I' for Inactive)
REMARK    1  A    between atoms: C2_2  and  N5_5 
REMARK       I    between atoms: N5_5  and  C6_6 
REMARK    2  A    between atoms: C6_6  and  C8_8 
REMARK    3  A    between atoms: N20_17  and  C22_19 
REMARK    4  A    between atoms: C22_19  and  C23_20 
REMARK    5  A    between atoms: C23_20  and  O25_21 
REMARK    6  A    between atoms: C23_20  and  C26_22 
REMARK    7  A    between atoms: C26_22  and  C28_23 
REMARK    8  A    between atoms: C26_22  and  N35_30 
REMARK    9  A    between atoms: C28_23  and  C29_24 
REMARK       I    between atoms: N35_30  and  C36_31 
REMARK   10  A    between atoms: C36_31  and  C38_33 
REMARK   11  A    between atoms: C38_33  and  C40_34 
REMARK   12  A    between atoms: C38_33  and  N44_38 
REMARK   13  A    between atoms: C40_34  and  C41_35 
REMARK       I    between atoms: C41_35  and  N42_36 
REMARK       I    between atoms: N44_38  and  C45_39 
REMARK   14  A    between atoms: C45_39  and  C47_41 
ROOT
ATOM      1  C26 ZIN A   1       2.272   9.410  21.589  1.00  0.00     0.119 C 
ENDROOT
BRANCH   1   2
ATOM      2  C23 ZIN A   1       2.763  10.691  22.445  1.00  0.00     0.167 C 
BRANCH   2   3
ATOM      3  C22 ZIN A   1       1.662  11.640  23.040  1.00  0.00     0.269 C 
BRANCH   3   4
ATOM      4  N20 ZIN A   1       2.098  13.161  23.251  1.00  0.00    -0.055 N 
ATOM      5  C8  ZIN A   1       0.910  14.146  23.386  1.00  0.00     0.279 C 
ATOM      6  C10 ZIN A   1       0.371  14.554  21.994  1.00  0.00     0.048 C 
ATOM      7  C11 ZIN A   1       1.058  14.058  20.716  1.00  0.00    -0.006 C 
ATOM      8  C17 ZIN A   1       2.544  13.691  20.879  1.00  0.00     0.016 C 
ATOM      9  C13 ZIN A   1       0.798  15.046  19.546  1.00  0.00     0.005 C 
ATOM     10  C16 ZIN A   1       3.432  14.359  19.835  1.00  0.00     0.007 C 
ATOM     11  C19 ZIN A   1       3.090  13.779  22.300  1.00  0.00     0.241 C 
ATOM     12  C15 ZIN A   1       3.223  15.860  19.793  1.00  0.00     0.000 C 
ATOM     13  C14 ZIN A   1       1.775  16.226  19.472  1.00  0.00     0.000 C 
ATOM     14  H21 ZIN A   1       2.585  13.170  24.170  1.00  0.00     0.281 HD
BRANCH   5  15
ATOM     15  C6  ZIN A   1       1.244  15.470  24.193  1.00  0.00     0.249 C 
ATOM     16  N5  ZIN A   1       0.833  15.440  25.517  1.00  0.00    -0.351 N 
ATOM     17  H66 ZIN A   1       0.385  14.593  25.847  1.00  0.00     0.163 HD
ATOM     18  O7  ZIN A   1       1.793  16.428  23.651  1.00  0.00    -0.271 OA
BRANCH  16  19
ATOM     19  C2  ZIN A   1       0.899  16.505  26.550  1.00  0.00     0.022 C 
ATOM     20  C1  ZIN A   1       0.123  17.720  25.992  1.00  0.00     0.037 C 
ATOM     21  C3  ZIN A   1       2.339  16.960  26.841  1.00  0.00     0.037 C 
ATOM     22  C4  ZIN A   1       0.204  16.090  27.852  1.00  0.00     0.037 C 
ENDBRANCH  16  19
ENDBRANCH   5  15
ENDBRANCH   3   4
ENDBRANCH   2   3
BRANCH   2  23
ATOM     23  O25 ZIN A   1       3.442  10.270  23.639  1.00  0.00    -0.392 OA
ATOM     24  H81 ZIN A   1       3.312   9.303  23.756  1.00  0.00     0.210 HD
ENDBRANCH   2  23
ENDBRANCH   1   2
BRANCH   1  25
ATOM     25  C28 ZIN A   1       1.177   9.571  20.483  1.00  0.00     0.066 C 
BRANCH  25  26
ATOM     26  C29 ZIN A   1       1.426  10.482  19.301  1.00  0.00    -0.056 C 
ATOM     27  C34 ZIN A   1       0.390  11.245  18.750  1.00  0.00     0.007 C 
ATOM     28  C33 ZIN A   1       0.591  11.997  17.587  1.00  0.00     0.001 C 
ATOM     29  C32 ZIN A   1       1.860  12.099  17.028  1.00  0.00     0.000 C 
ATOM     30  C31 ZIN A   1       2.925  11.447  17.633  1.00  0.00     0.001 C 
ATOM     31  C30 ZIN A   1       2.693  10.648  18.754  1.00  0.00     0.007 C 
ENDBRANCH  25  26
ENDBRANCH   1  25
BRANCH   1  32
ATOM     32  N35 ZIN A   1       3.415   8.634  21.004  1.00  0.00    -0.352 N 
ATOM     33  C36 ZIN A   1       3.501   7.255  21.077  1.00  0.00     0.241 C 
ATOM     34  O37 ZIN A   1       2.565   6.593  21.529  1.00  0.00    -0.271 OA
ATOM     35  H89 ZIN A   1       3.996   9.082  20.293  1.00  0.00     0.163 HD
BRANCH  33  36
ATOM     36  C38 ZIN A   1       4.830   6.598  20.589  1.00  0.00     0.185 C 
BRANCH  36  37
ATOM     37  C40 ZIN A   1       5.484   5.848  21.765  1.00  0.00     0.137 C 
BRANCH  37  38
ATOM     38  C41 ZIN A   1       5.693   4.367  21.477  1.00  0.00     0.217 C 
ATOM     39  N42 ZIN A   1       4.869   3.530  22.200  1.00  0.00    -0.370 N 
ATOM     40  H92 ZIN A   1       4.978   2.541  22.007  1.00  0.00     0.159 HD
ATOM     41  H93 ZIN A   1       3.970   3.826  22.541  1.00  0.00     0.159 HD
ATOM     42  O43 ZIN A   1       6.530   3.921  20.746  1.00  0.00    -0.274 OA
ENDBRANCH  37  38
ENDBRANCH  36  37
BRANCH  36  43
ATOM     43  N44 ZIN A   1       4.593   5.640  19.474  1.00  0.00    -0.342 N 
ATOM     44  C45 ZIN A   1       4.876   5.948  18.147  1.00  0.00     0.271 C 
ATOM     45  O46 ZIN A   1       5.318   7.057  17.840  1.00  0.00    -0.266 OA
ATOM     46  H94 ZIN A   1       4.043   4.814  19.678  1.00  0.00     0.163 HD
BRANCH  44  47
ATOM     47  C47 ZIN A   1       4.577   4.899  17.084  1.00  0.00     0.125 A 
ATOM     48  N56 ZIN A   1       4.503   3.619  17.536  1.00  0.00    -0.243 NA
ATOM     49  C55 ZIN A   1       4.392   2.614  16.647  1.00  0.00     0.068 A 
ATOM     50  C50 ZIN A   1       4.361   2.835  15.255  1.00  0.00    -0.007 A 
ATOM     51  C54 ZIN A   1       4.344   1.302  17.103  1.00  0.00     0.032 A 
ATOM     52  C49 ZIN A   1       4.331   4.169  14.816  1.00  0.00     0.016 A 
ATOM     53  C51 ZIN A   1       4.386   1.735  14.369  1.00  0.00     0.014 A 
ATOM     54  C48 ZIN A   1       4.435   5.217  15.738  1.00  0.00     0.038 A 
ATOM     55  C52 ZIN A   1       4.408   0.428  14.857  1.00  0.00     0.001 A 
ATOM     56  C53 ZIN A   1       4.354   0.210  16.228  1.00  0.00     0.002 A 
ENDBRANCH  44  47
ENDBRANCH  36  43
ENDBRANCH  33  36
ENDBRANCH   1  32
TORSDOF 14
ENDMDL
MODEL 5
REMARK VINA RESULT:    -6.967     11.929     16.633
REMARK INTER + INTRA:         -15.854
REMARK INTER:                 -12.416
REMARK INTRA:                  -3.439
REMARK UNBOUND:                -3.389
REMARK  14 active torsions:
REMARK  status: ('A' for Active; 'I' for Inactive)
REMARK    1  A    between atoms: C2_2  and  N5_5 
REMARK       I    between atoms: N5_5  and  C6_6 
REMARK    2  A    between atoms: C6_6  and  C8_8 
REMARK    3  A    between atoms: N20_17  and  C22_19 
REMARK    4  A    between atoms: C22_19  and  C23_20 
REMARK    5  A    between atoms: C23_20  and  O25_21 
REMARK    6  A    between atoms: C23_20  and  C26_22 
REMARK    7  A    between atoms: C26_22  and  C28_23 
REMARK    8  A    between atoms: C26_22  and  N35_30 
REMARK    9  A    between atoms: C28_23  and  C29_24 
REMARK       I    between atoms: N35_30  and  C36_31 
REMARK   10  A    between atoms: C36_31  and  C38_33 
REMARK   11  A    between atoms: C38_33  and  C40_34 
REMARK   12  A    between atoms: C38_33  and  N44_38 
REMARK   13  A    between atoms: C40_34  and  C41_35 
REMARK       I    between atoms: C41_35  and  N42_36 
REMARK       I    between atoms: N44_38  and  C45_39 
REMARK   14  A    between atoms: C45_39  and  C47_41 
ROOT
ATOM      1  C26 ZIN A   1       3.985   9.409  20.808  1.00  0.00     0.119 C 
ENDROOT
BRANCH   1   2
ATOM      2  C23 ZIN A   1       4.706  10.184  22.032  1.00  0.00     0.167 C 
BRANCH   2   3
ATOM      3  C22 ZIN A   1       3.996  10.163  23.432  1.00  0.00     0.269 C 
BRANCH   3   4
ATOM      4  N20 ZIN A   1       3.614  11.589  24.038  1.00  0.00    -0.055 N 
ATOM      5  C8  ZIN A   1       2.406  11.561  25.008  1.00  0.00     0.279 C 
ATOM      6  C10 ZIN A   1       1.071  11.599  24.226  1.00  0.00     0.048 C 
ATOM      7  C11 ZIN A   1       1.064  11.738  22.700  1.00  0.00    -0.006 C 
ATOM      8  C17 ZIN A   1       2.314  12.413  22.105  1.00  0.00     0.016 C 
ATOM      9  C13 ZIN A   1      -0.264  12.386  22.223  1.00  0.00     0.005 C 
ATOM     10  C16 ZIN A   1       1.970  13.554  21.154  1.00  0.00     0.007 C 
ATOM     11  C19 ZIN A   1       3.414  12.754  23.104  1.00  0.00     0.241 C 
ATOM     12  C15 ZIN A   1       1.036  14.561  21.797  1.00  0.00     0.000 C 
ATOM     13  C14 ZIN A   1      -0.276  13.919  22.244  1.00  0.00     0.000 C 
ATOM     14  H21 ZIN A   1       4.437  11.859  24.613  1.00  0.00     0.281 HD
BRANCH   5  15
ATOM     15  C6  ZIN A   1       2.389  12.738  26.071  1.00  0.00     0.249 C 
ATOM     16  N5  ZIN A   1       1.580  13.806  25.713  1.00  0.00    -0.351 N 
ATOM     17  H66 ZIN A   1       1.072  13.734  24.839  1.00  0.00     0.163 HD
ATOM     18  O7  ZIN A   1       3.069  12.686  27.093  1.00  0.00    -0.271 OA
BRANCH  16  19
ATOM     19  C2  ZIN A   1       1.371  15.105  26.403  1.00  0.00     0.022 C 
ATOM     20  C1  ZIN A   1       0.562  16.000  25.437  1.00  0.00     0.037 C 
ATOM     21  C3  ZIN A   1       2.692  15.827  26.718  1.00  0.00     0.037 C 
ATOM     22  C4  ZIN A   1       0.535  14.953  27.679  1.00  0.00     0.037 C 
ENDBRANCH  16  19
ENDBRANCH   5  15
ENDBRANCH   3   4
ENDBRANCH   2   3
BRANCH   2  23
ATOM     23  O25 ZIN A   1       5.965   9.570  22.348  1.00  0.00    -0.392 OA
ATOM     24  H81 ZIN A   1       6.523   9.553  21.539  1.00  0.00     0.210 HD
ENDBRANCH   2  23
ENDBRANCH   1   2
BRANCH   1  25
ATOM     25  C28 ZIN A   1       3.904  10.069  19.392  1.00  0.00     0.066 C 
BRANCH  25  26
ATOM     26  C29 ZIN A   1       2.607  10.688  18.921  1.00  0.00    -0.056 C 
ATOM     27  C34 ZIN A   1       2.597  11.654  17.908  1.00  0.00     0.007 C 
ATOM     28  C33 ZIN A   1       1.414  12.311  17.553  1.00  0.00     0.001 C 
ATOM     29  C32 ZIN A   1       0.201  11.926  18.115  1.00  0.00     0.000 C 
ATOM     30  C31 ZIN A   1       0.176  10.885  19.032  1.00  0.00     0.001 C 
ATOM     31  C30 ZIN A   1       1.375  10.287  19.423  1.00  0.00     0.007 C 
ENDBRANCH  25  26
ENDBRANCH   1  25
BRANCH   1  32
ATOM     32  N35 ZIN A   1       4.485   8.005  20.641  1.00  0.00    -0.352 N 
ATOM     33  C36 ZIN A   1       3.723   6.893  20.956  1.00  0.00     0.241 C 
ATOM     34  O37 ZIN A   1       2.541   7.018  21.281  1.00  0.00    -0.271 OA
ATOM     35  H89 ZIN A   1       5.280   7.841  20.020  1.00  0.00     0.163 HD
BRANCH  33  36
ATOM     36  C38 ZIN A   1       4.434   5.506  20.905  1.00  0.00     0.185 C 
BRANCH  36  37
ATOM     37  C40 ZIN A   1       3.792   4.570  21.947  1.00  0.00     0.137 C 
BRANCH  37  38
ATOM     38  C41 ZIN A   1       4.787   4.073  22.987  1.00  0.00     0.217 C 
ATOM     39  N42 ZIN A   1       5.931   3.519  22.452  1.00  0.00    -0.370 N 
ATOM     40  H92 ZIN A   1       6.616   3.202  23.129  1.00  0.00     0.159 HD
ATOM     41  H93 ZIN A   1       6.281   3.781  21.546  1.00  0.00     0.159 HD
ATOM     42  O43 ZIN A   1       4.606   4.082  24.170  1.00  0.00    -0.274 OA
ENDBRANCH  37  38
ENDBRANCH  36  37
BRANCH  36  43
ATOM     43  N44 ZIN A   1       4.322   4.880  19.558  1.00  0.00    -0.342 N 
ATOM     44  C45 ZIN A   1       5.128   5.256  18.487  1.00  0.00     0.271 C 
ATOM     45  O46 ZIN A   1       5.961   6.156  18.613  1.00  0.00    -0.266 OA
ATOM     46  H94 ZIN A   1       3.514   4.295  19.380  1.00  0.00     0.163 HD
BRANCH  44  47
ATOM     47  C47 ZIN A   1       4.915   4.563  17.148  1.00  0.00     0.125 A 
ATOM     48  N56 ZIN A   1       4.412   3.302  17.220  1.00  0.00    -0.243 NA
ATOM     49  C55 ZIN A   1       4.333   2.562  16.098  1.00  0.00     0.068 A 
ATOM     50  C50 ZIN A   1       4.766   3.038  14.844  1.00  0.00    -0.007 A 
ATOM     51  C54 ZIN A   1       3.844   1.262  16.171  1.00  0.00     0.032 A 
ATOM     52  C49 ZIN A   1       5.183   4.378  14.774  1.00  0.00     0.016 A 
ATOM     53  C51 ZIN A   1       4.790   2.168  13.732  1.00  0.00     0.014 A 
ATOM     54  C48 ZIN A   1       5.255   5.155  15.936  1.00  0.00     0.038 A 
ATOM     55  C52 ZIN A   1       4.358   0.846  13.853  1.00  0.00     0.001 A 
ATOM     56  C53 ZIN A   1       3.853   0.401  15.068  1.00  0.00     0.002 A 
ENDBRANCH  44  47
ENDBRANCH  36  43
ENDBRANCH  33  36
ENDBRANCH   1  32
TORSDOF 14
ENDMDL
