MODEL 1
REMARK VINA RESULT:    -7.379      0.000      0.000
REMARK INTER + INTRA:         -15.738
REMARK INTER:                 -10.015
REMARK INTRA:                  -5.723
REMARK UNBOUND:                -2.534
REMARK  14 active torsions:
REMARK  status: ('A' for Active; 'I' for Inactive)
REMARK    1  A    between atoms: C2_2  and  N5_5 
REMARK       I    between atoms: N5_5  and  C6_6 
REMARK    2  A    between atoms: C6_6  and  C8_8 
REMARK    3  A    between atoms: N20_17  and  C22_19 
REMARK    4  A    between atoms: C22_19  and  C23_20 
REMARK    5  A    between atoms: C23_20  and  O25_21 
REMARK    6  A    between atoms: C23_20  and  C26_22 
REMARK    7  A    between atoms: C26_22  and  C28_23 
REMARK    8  A    between atoms: C26_22  and  N35_30 
REMARK    9  A    between atoms: C28_23  and  C29_24 
REMARK       I    between atoms: N35_30  and  C36_31 
REMARK   10  A    between atoms: C36_31  and  C38_33 
REMARK   11  A    between atoms: C38_33  and  C40_34 
REMARK   12  A    between atoms: C38_33  and  N44_38 
REMARK   13  A    between atoms: C40_34  and  C41_35 
REMARK       I    between atoms: C41_35  and  N42_36 
REMARK       I    between atoms: N44_38  and  C45_39 
REMARK   14  A    between atoms: C45_39  and  C47_41 
ROOT
ATOM      1  C26 ZIN A   1       3.714  10.603  18.288  1.00  0.00     0.119 C 
ENDROOT
BRANCH   1   2
ATOM      2  C23 ZIN A   1       4.616  11.916  18.569  1.00  0.00     0.167 C 
BRANCH   2   3
ATOM      3  C22 ZIN A   1       5.736  11.815  19.665  1.00  0.00     0.269 C 
BRANCH   3   4
ATOM      4  N20 ZIN A   1       5.428  12.560  21.043  1.00  0.00    -0.055 N 
ATOM      5  C8  ZIN A   1       6.635  12.623  22.011  1.00  0.00     0.279 C 
ATOM      6  C10 ZIN A   1       6.763  11.308  22.817  1.00  0.00     0.048 C 
ATOM      7  C11 ZIN A   1       5.723  10.193  22.662  1.00  0.00    -0.006 C 
ATOM      8  C17 ZIN A   1       4.335  10.663  22.187  1.00  0.00     0.016 C 
ATOM      9  C13 ZIN A   1       5.666   9.325  23.948  1.00  0.00     0.005 C 
ATOM     10  C16 ZIN A   1       3.206  10.146  23.072  1.00  0.00     0.007 C 
ATOM     11  C19 ZIN A   1       4.224  12.145  21.849  1.00  0.00     0.241 C 
ATOM     12  C15 ZIN A   1       3.442  10.470  24.535  1.00  0.00     0.000 C 
ATOM     13  C14 ZIN A   1       4.747   9.867  25.050  1.00  0.00     0.000 C 
ATOM     14  H21 ZIN A   1       5.226  13.543  20.770  1.00  0.00     0.281 HD
BRANCH   5  15
ATOM     15  C6  ZIN A   1       6.589  13.830  23.040  1.00  0.00     0.249 C 
ATOM     16  N5  ZIN A   1       6.241  13.456  24.329  1.00  0.00    -0.351 N 
ATOM     17  H66 ZIN A   1       6.069  12.471  24.499  1.00  0.00     0.163 HD
ATOM     18  O7  ZIN A   1       6.818  14.983  22.682  1.00  0.00    -0.271 OA
BRANCH  16  19
ATOM     19  C2  ZIN A   1       6.021  14.301  25.530  1.00  0.00     0.022 C 
ATOM     20  C1  ZIN A   1       5.558  13.358  26.664  1.00  0.00     0.037 C 
ATOM     21  C3  ZIN A   1       4.922  15.357  25.318  1.00  0.00     0.037 C 
ATOM     22  C4  ZIN A   1       7.314  14.974  26.007  1.00  0.00     0.037 C 
ENDBRANCH  16  19
ENDBRANCH   5  15
ENDBRANCH   3   4
ENDBRANCH   2   3
BRANCH   2  23
ATOM     23  O25 ZIN A   1       5.392  12.253  17.408  1.00  0.00    -0.392 OA
ATOM     24  H81 ZIN A   1       4.950  11.884  16.611  1.00  0.00     0.210 HD
ENDBRANCH   2  23
ENDBRANCH   1   2
BRANCH   1  25
ATOM     25  C28 ZIN A   1       4.386   9.196  18.159  1.00  0.00     0.066 C 
BRANCH  25  26
ATOM     26  C29 ZIN A   1       4.408   8.257  19.345  1.00  0.00    -0.056 C 
ATOM     27  C34 ZIN A   1       3.222   7.725  19.864  1.00  0.00     0.007 C 
ATOM     28  C33 ZIN A   1       3.231   6.952  21.030  1.00  0.00     0.001 C 
ATOM     29  C32 ZIN A   1       4.436   6.593  21.626  1.00  0.00     0.000 C 
ATOM     30  C31 ZIN A   1       5.629   7.011  21.054  1.00  0.00     0.001 C 
ATOM     31  C30 ZIN A   1       5.598   7.836  19.929  1.00  0.00     0.007 C 
ENDBRANCH  25  26
ENDBRANCH   1  25
BRANCH   1  32
ATOM     32  N35 ZIN A   1       2.559  10.482  19.237  1.00  0.00    -0.352 N 
ATOM     33  C36 ZIN A   1       1.287  10.935  18.932  1.00  0.00     0.241 C 
ATOM     34  O37 ZIN A   1       1.026  11.355  17.803  1.00  0.00    -0.271 OA
ATOM     35  H89 ZIN A   1       2.622   9.806  20.000  1.00  0.00     0.163 HD
BRANCH  33  36
ATOM     36  C38 ZIN A   1       0.229  10.911  20.079  1.00  0.00     0.185 C 
BRANCH  36  37
ATOM     37  C40 ZIN A   1       0.071   9.465  20.590  1.00  0.00     0.137 C 
BRANCH  37  38
ATOM     38  C41 ZIN A   1      -1.203   9.261  21.399  1.00  0.00     0.217 C 
ATOM     39  N42 ZIN A   1      -1.714   7.982  21.333  1.00  0.00    -0.370 N 
ATOM     40  H92 ZIN A   1      -2.550   7.820  21.882  1.00  0.00     0.159 HD
ATOM     41  H93 ZIN A   1      -1.133   7.182  21.150  1.00  0.00     0.159 HD
ATOM     42  O43 ZIN A   1      -1.779  10.121  22.000  1.00  0.00    -0.274 OA
ENDBRANCH  37  38
ENDBRANCH  36  37
BRANCH  36  43
ATOM     43  N44 ZIN A   1       0.631  11.785  21.216  1.00  0.00    -0.342 N 
ATOM     44  C45 ZIN A   1       0.072  13.042  21.429  1.00  0.00     0.271 C 
ATOM     45  O46 ZIN A   1      -0.772  13.494  20.652  1.00  0.00    -0.266 OA
ATOM     46  H94 ZIN A   1       1.461  11.524  21.735  1.00  0.00     0.163 HD
BRANCH  44  47
ATOM     47  C47 ZIN A   1       0.571  13.861  22.612  1.00  0.00     0.125 A 
ATOM     48  N56 ZIN A   1       0.958  13.138  23.696  1.00  0.00    -0.243 NA
ATOM     49  C55 ZIN A   1       1.269  13.781  24.838  1.00  0.00     0.068 A 
ATOM     50  C50 ZIN A   1       1.198  15.184  24.960  1.00  0.00    -0.007 A 
ATOM     51  C54 ZIN A   1       1.637  13.045  25.958  1.00  0.00     0.032 A 
ATOM     52  C49 ZIN A   1       0.900  15.916  23.798  1.00  0.00     0.016 A 
ATOM     53  C51 ZIN A   1       1.399  15.791  26.219  1.00  0.00     0.014 A 
ATOM     54  C48 ZIN A   1       0.588  15.252  22.607  1.00  0.00     0.038 A 
ATOM     55  C52 ZIN A   1       1.700  15.018  27.342  1.00  0.00     0.001 A 
ATOM     56  C53 ZIN A   1       1.852  13.644  27.204  1.00  0.00     0.002 A 
ENDBRANCH  44  47
ENDBRANCH  36  43
ENDBRANCH  33  36
ENDBRANCH   1  32
TORSDOF 14
ENDMDL
MODEL 2
REMARK VINA RESULT:    -7.289      5.444      8.349
REMARK INTER + INTRA:         -15.577
REMARK INTER:                 -13.063
REMARK INTRA:                  -2.514
REMARK UNBOUND:                -2.534
REMARK  14 active torsions:
REMARK  status: ('A' for Active; 'I' for Inactive)
REMARK    1  A    between atoms: C2_2  and  N5_5 
REMARK       I    between atoms: N5_5  and  C6_6 
REMARK    2  A    between atoms: C6_6  and  C8_8 
REMARK    3  A    between atoms: N20_17  and  C22_19 
REMARK    4  A    between atoms: C22_19  and  C23_20 
REMARK    5  A    between atoms: C23_20  and  O25_21 
REMARK    6  A    between atoms: C23_20  and  C26_22 
REMARK    7  A    between atoms: C26_22  and  C28_23 
REMARK    8  A    between atoms: C26_22  and  N35_30 
REMARK    9  A    between atoms: C28_23  and  C29_24 
REMARK       I    between atoms: N35_30  and  C36_31 
REMARK   10  A    between atoms: C36_31  and  C38_33 
REMARK   11  A    between atoms: C38_33  and  C40_34 
REMARK   12  A    between atoms: C38_33  and  N44_38 
REMARK   13  A    between atoms: C40_34  and  C41_35 
REMARK       I    between atoms: C41_35  and  N42_36 
REMARK       I    between atoms: N44_38  and  C45_39 
REMARK   14  A    between atoms: C45_39  and  C47_41 
ROOT
ATOM      1  C26 ZIN A   1       4.470   5.131  21.516  1.00  0.00     0.119 C 
ENDROOT
BRANCH   1   2
ATOM      2  C23 ZIN A   1       3.071   5.941  21.572  1.00  0.00     0.167 C 
BRANCH   2   3
ATOM      3  C22 ZIN A   1       2.796   7.007  20.452  1.00  0.00     0.269 C 
BRANCH   3   4
ATOM      4  N20 ZIN A   1       2.245   8.417  20.957  1.00  0.00    -0.055 N 
ATOM      5  C8  ZIN A   1       1.685   9.318  19.829  1.00  0.00     0.279 C 
ATOM      6  C10 ZIN A   1       2.827  10.084  19.118  1.00  0.00     0.048 C 
ATOM      7  C11 ZIN A   1       4.273   9.961  19.611  1.00  0.00    -0.006 C 
ATOM      8  C17 ZIN A   1       4.422   9.575  21.094  1.00  0.00     0.016 C 
ATOM      9  C13 ZIN A   1       5.085  11.227  19.225  1.00  0.00     0.005 C 
ATOM     10  C16 ZIN A   1       5.360  10.509  21.852  1.00  0.00     0.007 C 
ATOM     11  C19 ZIN A   1       3.121   9.279  21.830  1.00  0.00     0.241 C 
ATOM     12  C15 ZIN A   1       4.964  11.964  21.683  1.00  0.00     0.000 C 
ATOM     13  C14 ZIN A   1       4.972  12.391  20.217  1.00  0.00     0.000 C 
ATOM     14  H21 ZIN A   1       1.434   8.180  21.564  1.00  0.00     0.281 HD
BRANCH   5  15
ATOM     15  C6  ZIN A   1       0.605  10.376  20.308  1.00  0.00     0.249 C 
ATOM     16  N5  ZIN A   1       1.092  11.670  20.409  1.00  0.00    -0.351 N 
ATOM     17  H66 ZIN A   1       2.062  11.824  20.158  1.00  0.00     0.163 HD
ATOM     18  O7  ZIN A   1      -0.544  10.036  20.584  1.00  0.00    -0.271 OA
BRANCH  16  19
ATOM     19  C2  ZIN A   1       0.413  12.900  20.892  1.00  0.00     0.022 C 
ATOM     20  C1  ZIN A   1       1.505  13.984  21.045  1.00  0.00     0.037 C 
ATOM     21  C3  ZIN A   1      -0.255  12.707  22.264  1.00  0.00     0.037 C 
ATOM     22  C4  ZIN A   1      -0.607  13.432  19.879  1.00  0.00     0.037 C 
ENDBRANCH  16  19
ENDBRANCH   5  15
ENDBRANCH   3   4
ENDBRANCH   2   3
BRANCH   2  23
ATOM     23  O25 ZIN A   1       1.962   5.047  21.384  1.00  0.00    -0.392 OA
ATOM     24  H81 ZIN A   1       1.809   4.550  22.218  1.00  0.00     0.210 HD
ENDBRANCH   2  23
ENDBRANCH   1   2
BRANCH   1  25
ATOM     25  C28 ZIN A   1       5.530   5.460  20.413  1.00  0.00     0.066 C 
BRANCH  25  26
ATOM     26  C29 ZIN A   1       5.766   4.489  19.277  1.00  0.00    -0.056 C 
ATOM     27  C34 ZIN A   1       7.020   3.900  19.082  1.00  0.00     0.007 C 
ATOM     28  C33 ZIN A   1       7.270   3.095  17.966  1.00  0.00     0.001 C 
ATOM     29  C32 ZIN A   1       6.238   2.762  17.094  1.00  0.00     0.000 C 
ATOM     30  C31 ZIN A   1       4.958   3.238  17.342  1.00  0.00     0.001 C 
ATOM     31  C30 ZIN A   1       4.743   4.094  18.423  1.00  0.00     0.007 C 
ENDBRANCH  25  26
ENDBRANCH   1  25
BRANCH   1  32
ATOM     32  N35 ZIN A   1       5.171   5.097  22.841  1.00  0.00    -0.352 N 
ATOM     33  C36 ZIN A   1       5.171   3.983  23.662  1.00  0.00     0.241 C 
ATOM     34  O37 ZIN A   1       4.685   2.920  23.273  1.00  0.00    -0.271 OA
ATOM     35  H89 ZIN A   1       5.900   5.789  23.026  1.00  0.00     0.163 HD
BRANCH  33  36
ATOM     36  C38 ZIN A   1       5.784   4.150  25.088  1.00  0.00     0.185 C 
BRANCH  36  37
ATOM     37  C40 ZIN A   1       6.800   5.308  25.069  1.00  0.00     0.137 C 
BRANCH  37  38
ATOM     38  C41 ZIN A   1       8.206   4.867  25.454  1.00  0.00     0.217 C 
ATOM     39  N42 ZIN A   1       8.245   3.945  26.478  1.00  0.00    -0.370 N 
ATOM     40  H92 ZIN A   1       9.172   3.622  26.735  1.00  0.00     0.159 HD
ATOM     41  H93 ZIN A   1       7.482   3.317  26.665  1.00  0.00     0.159 HD
ATOM     42  O43 ZIN A   1       9.215   5.302  24.982  1.00  0.00    -0.274 OA
ENDBRANCH  37  38
ENDBRANCH  36  37
BRANCH  36  43
ATOM     43  N44 ZIN A   1       4.737   4.441  26.105  1.00  0.00    -0.342 N 
ATOM     44  C45 ZIN A   1       4.707   3.820  27.351  1.00  0.00     0.271 C 
ATOM     45  O46 ZIN A   1       5.550   2.971  27.649  1.00  0.00    -0.266 OA
ATOM     46  H94 ZIN A   1       3.927   4.971  25.804  1.00  0.00     0.163 HD
BRANCH  44  47
ATOM     47  C47 ZIN A   1       3.579   4.178  28.308  1.00  0.00     0.125 A 
ATOM     48  N56 ZIN A   1       3.124   5.456  28.217  1.00  0.00    -0.243 NA
ATOM     49  C55 ZIN A   1       2.235   5.903  29.124  1.00  0.00     0.068 A 
ATOM     50  C50 ZIN A   1       1.761   5.098  30.180  1.00  0.00    -0.007 A 
ATOM     51  C54 ZIN A   1       1.788   7.217  29.052  1.00  0.00     0.032 A 
ATOM     52  C49 ZIN A   1       2.162   3.752  30.192  1.00  0.00     0.016 A 
ATOM     53  C51 ZIN A   1       0.940   5.663  31.181  1.00  0.00     0.014 A 
ATOM     54  C48 ZIN A   1       3.077   3.280  29.244  1.00  0.00     0.038 A 
ATOM     55  C52 ZIN A   1       0.565   7.006  31.119  1.00  0.00     0.001 A 
ATOM     56  C53 ZIN A   1       0.963   7.777  30.034  1.00  0.00     0.002 A 
ENDBRANCH  44  47
ENDBRANCH  36  43
ENDBRANCH  33  36
ENDBRANCH   1  32
TORSDOF 14
ENDMDL
MODEL 3
REMARK VINA RESULT:    -7.238      2.534      6.531
REMARK INTER + INTRA:         -15.484
REMARK INTER:                 -12.168
REMARK INTRA:                  -3.316
REMARK UNBOUND:                -2.534
REMARK  14 active torsions:
REMARK  status: ('A' for Active; 'I' for Inactive)
REMARK    1  A    between atoms: C2_2  and  N5_5 
REMARK       I    between atoms: N5_5  and  C6_6 
REMARK    2  A    between atoms: C6_6  and  C8_8 
REMARK    3  A    between atoms: N20_17  and  C22_19 
REMARK    4  A    between atoms: C22_19  and  C23_20 
REMARK    5  A    between atoms: C23_20  and  O25_21 
REMARK    6  A    between atoms: C23_20  and  C26_22 
REMARK    7  A    between atoms: C26_22  and  C28_23 
REMARK    8  A    between atoms: C26_22  and  N35_30 
REMARK    9  A    between atoms: C28_23  and  C29_24 
REMARK       I    between atoms: N35_30  and  C36_31 
REMARK   10  A    between atoms: C36_31  and  C38_33 
REMARK   11  A    between atoms: C38_33  and  C40_34 
REMARK   12  A    between atoms: C38_33  and  N44_38 
REMARK   13  A    between atoms: C40_34  and  C41_35 
REMARK       I    between atoms: C41_35  and  N42_36 
REMARK       I    between atoms: N44_38  and  C45_39 
REMARK   14  A    between atoms: C45_39  and  C47_41 
ROOT
ATOM      1  C26 ZIN A   1       1.690  13.035  19.260  1.00  0.00     0.119 C 
ENDROOT
BRANCH   1   2
ATOM      2  C23 ZIN A   1       0.954  14.288  19.970  1.00  0.00     0.167 C 
BRANCH   2   3
ATOM      3  C22 ZIN A   1       1.664  14.953  21.204  1.00  0.00     0.269 C 
BRANCH   3   4
ATOM      4  N20 ZIN A   1       0.903  14.815  22.600  1.00  0.00    -0.055 N 
ATOM      5  C8  ZIN A   1       1.513  15.669  23.739  1.00  0.00     0.279 C 
ATOM      6  C10 ZIN A   1       2.716  14.943  24.388  1.00  0.00     0.048 C 
ATOM      7  C11 ZIN A   1       3.107  13.530  23.943  1.00  0.00    -0.006 C 
ATOM      8  C17 ZIN A   1       1.963  12.705  23.326  1.00  0.00     0.016 C 
ATOM      9  C13 ZIN A   1       3.845  12.788  25.090  1.00  0.00     0.005 C 
ATOM     10  C16 ZIN A   1       1.825  11.325  23.962  1.00  0.00     0.007 C 
ATOM     11  C19 ZIN A   1       0.638  13.440  23.159  1.00  0.00     0.241 C 
ATOM     12  C15 ZIN A   1       1.711  11.409  25.472  1.00  0.00     0.000 C 
ATOM     13  C14 ZIN A   1       2.927  12.088  26.099  1.00  0.00     0.000 C 
ATOM     14  H21 ZIN A   1      -0.044  15.205  22.422  1.00  0.00     0.281 HD
BRANCH   5  15
ATOM     15  C6  ZIN A   1       0.491  16.055  24.889  1.00  0.00     0.249 C 
ATOM     16  N5  ZIN A   1       0.866  15.610  26.147  1.00  0.00    -0.351 N 
ATOM     17  H66 ZIN A   1       1.744  15.107  26.221  1.00  0.00     0.163 HD
ATOM     18  O7  ZIN A   1      -0.545  16.669  24.643  1.00  0.00    -0.271 OA
BRANCH  16  19
ATOM     19  C2  ZIN A   1       0.140  15.709  27.439  1.00  0.00     0.022 C 
ATOM     20  C1  ZIN A   1       1.050  16.503  28.404  1.00  0.00     0.037 C 
ATOM     21  C3  ZIN A   1      -0.131  14.333  28.072  1.00  0.00     0.037 C 
ATOM     22  C4  ZIN A   1      -1.168  16.496  27.307  1.00  0.00     0.037 C 
ENDBRANCH  16  19
ENDBRANCH   5  15
ENDBRANCH   3   4
ENDBRANCH   2   3
BRANCH   2  23
ATOM     23  O25 ZIN A   1       0.866  15.401  19.066  1.00  0.00    -0.392 OA
ATOM     24  H81 ZIN A   1       1.616  15.356  18.432  1.00  0.00     0.210 HD
ENDBRANCH   2  23
ENDBRANCH   1   2
BRANCH   1  25
ATOM     25  C28 ZIN A   1       3.169  13.163  18.767  1.00  0.00     0.066 C 
BRANCH  25  26
ATOM     26  C29 ZIN A   1       4.098  11.971  18.846  1.00  0.00    -0.056 C 
ATOM     27  C34 ZIN A   1       5.079  11.888  19.841  1.00  0.00     0.007 C 
ATOM     28  C33 ZIN A   1       6.012  10.846  19.844  1.00  0.00     0.001 C 
ATOM     29  C32 ZIN A   1       5.903   9.802  18.929  1.00  0.00     0.000 C 
ATOM     30  C31 ZIN A   1       4.862   9.807  18.013  1.00  0.00     0.001 C 
ATOM     31  C30 ZIN A   1       3.980  10.889  17.982  1.00  0.00     0.007 C 
ENDBRANCH  25  26
ENDBRANCH   1  25
BRANCH   1  32
ATOM     32  N35 ZIN A   1       1.572  11.769  20.056  1.00  0.00    -0.352 N 
ATOM     33  C36 ZIN A   1       0.597  10.817  19.812  1.00  0.00     0.241 C 
ATOM     34  O37 ZIN A   1      -0.149  10.922  18.838  1.00  0.00    -0.271 OA
ATOM     35  H89 ZIN A   1       2.380  11.454  20.595  1.00  0.00     0.163 HD
BRANCH  33  36
ATOM     36  C38 ZIN A   1       0.480   9.642  20.832  1.00  0.00     0.185 C 
BRANCH  36  37
ATOM     37  C40 ZIN A   1      -0.990   9.185  20.909  1.00  0.00     0.137 C 
BRANCH  37  38
ATOM     38  C41 ZIN A   1      -1.689   9.655  22.178  1.00  0.00     0.217 C 
ATOM     39  N42 ZIN A   1      -2.860   8.984  22.457  1.00  0.00    -0.370 N 
ATOM     40  H92 ZIN A   1      -3.329   9.268  23.310  1.00  0.00     0.159 HD
ATOM     41  H93 ZIN A   1      -3.027   8.043  22.143  1.00  0.00     0.159 HD
ATOM     42  O43 ZIN A   1      -1.324  10.565  22.865  1.00  0.00    -0.274 OA
ENDBRANCH  37  38
ENDBRANCH  36  37
BRANCH  36  43
ATOM     43  N44 ZIN A   1       1.328   8.484  20.436  1.00  0.00    -0.342 N 
ATOM     44  C45 ZIN A   1       2.670   8.381  20.789  1.00  0.00     0.271 C 
ATOM     45  O46 ZIN A   1       3.221   9.278  21.432  1.00  0.00    -0.266 OA
ATOM     46  H94 ZIN A   1       0.955   7.849  19.740  1.00  0.00     0.163 HD
BRANCH  44  47
ATOM     47  C47 ZIN A   1       3.449   7.162  20.314  1.00  0.00     0.125 A 
ATOM     48  N56 ZIN A   1       4.434   6.740  21.151  1.00  0.00    -0.243 NA
ATOM     49  C55 ZIN A   1       5.269   5.766  20.743  1.00  0.00     0.068 A 
ATOM     50  C50 ZIN A   1       5.172   5.168  19.470  1.00  0.00    -0.007 A 
ATOM     51  C54 ZIN A   1       6.296   5.350  21.584  1.00  0.00     0.032 A 
ATOM     52  C49 ZIN A   1       4.083   5.544  18.666  1.00  0.00     0.016 A 
ATOM     53  C51 ZIN A   1       6.161   4.253  19.046  1.00  0.00     0.014 A 
ATOM     54  C48 ZIN A   1       3.206   6.548  19.090  1.00  0.00     0.038 A 
ATOM     55  C52 ZIN A   1       7.219   3.908  19.888  1.00  0.00     0.001 A 
ATOM     56  C53 ZIN A   1       7.269   4.433  21.173  1.00  0.00     0.002 A 
ENDBRANCH  44  47
ENDBRANCH  36  43
ENDBRANCH  33  36
ENDBRANCH   1  32
TORSDOF 14
ENDMDL
MODEL 4
REMARK VINA RESULT:    -7.236      3.564      7.074
REMARK INTER + INTRA:         -15.481
REMARK INTER:                 -10.944
REMARK INTRA:                  -4.537
REMARK UNBOUND:                -2.534
REMARK  14 active torsions:
REMARK  status: ('A' for Active; 'I' for Inactive)
REMARK    1  A    between atoms: C2_2  and  N5_5 
REMARK       I    between atoms: N5_5  and  C6_6 
REMARK    2  A    between atoms: C6_6  and  C8_8 
REMARK    3  A    between atoms: N20_17  and  C22_19 
REMARK    4  A    between atoms: C22_19  and  C23_20 
REMARK    5  A    between atoms: C23_20  and  O25_21 
REMARK    6  A    between atoms: C23_20  and  C26_22 
REMARK    7  A    between atoms: C26_22  and  C28_23 
REMARK    8  A    between atoms: C26_22  and  N35_30 
REMARK    9  A    between atoms: C28_23  and  C29_24 
REMARK       I    between atoms: N35_30  and  C36_31 
REMARK   10  A    between atoms: C36_31  and  C38_33 
REMARK   11  A    between atoms: C38_33  and  C40_34 
REMARK   12  A    between atoms: C38_33  and  N44_38 
REMARK   13  A    between atoms: C40_34  and  C41_35 
REMARK       I    between atoms: C41_35  and  N42_36 
REMARK       I    between atoms: N44_38  and  C45_39 
REMARK   14  A    between atoms: C45_39  and  C47_41 
ROOT
ATOM      1  C26 ZIN A   1       5.883   8.789  25.895  1.00  0.00     0.119 C 
ENDROOT
BRANCH   1   2
ATOM      2  C23 ZIN A   1       4.722   9.886  26.146  1.00  0.00     0.167 C 
BRANCH   2   3
ATOM      3  C22 ZIN A   1       3.955  10.441  24.891  1.00  0.00     0.269 C 
BRANCH   3   4
ATOM      4  N20 ZIN A   1       3.462  11.956  24.994  1.00  0.00    -0.055 N 
ATOM      5  C8  ZIN A   1       2.126  12.135  25.759  1.00  0.00     0.279 C 
ATOM      6  C10 ZIN A   1       0.919  11.864  24.828  1.00  0.00     0.048 C 
ATOM      7  C11 ZIN A   1       1.133  11.557  23.342  1.00  0.00    -0.006 C 
ATOM      8  C17 ZIN A   1       2.444  12.106  22.749  1.00  0.00     0.016 C 
ATOM      9  C13 ZIN A   1      -0.123  11.958  22.522  1.00  0.00     0.005 C 
ATOM     10  C16 ZIN A   1       2.220  12.901  21.467  1.00  0.00     0.007 C 
ATOM     11  C19 ZIN A   1       3.379  12.788  23.740  1.00  0.00     0.241 C 
ATOM     12  C15 ZIN A   1       1.183  13.993  21.653  1.00  0.00     0.000 C 
ATOM     13  C14 ZIN A   1      -0.167  13.428  22.090  1.00  0.00     0.000 C 
ATOM     14  H21 ZIN A   1       4.188  12.430  25.568  1.00  0.00     0.281 HD
BRANCH   5  15
ATOM     15  C6  ZIN A   1       1.933  13.565  26.415  1.00  0.00     0.249 C 
ATOM     16  N5  ZIN A   1       1.185  14.441  25.643  1.00  0.00    -0.351 N 
ATOM     17  H66 ZIN A   1       0.824  14.094  24.762  1.00  0.00     0.163 HD
ATOM     18  O7  ZIN A   1       2.440  13.845  27.499  1.00  0.00    -0.271 OA
BRANCH  16  19
ATOM     19  C2  ZIN A   1       0.860  15.871  25.883  1.00  0.00     0.022 C 
ATOM     20  C1  ZIN A   1       0.097  16.373  24.636  1.00  0.00     0.037 C 
ATOM     21  C3  ZIN A   1       2.116  16.743  26.050  1.00  0.00     0.037 C 
ATOM     22  C4  ZIN A   1      -0.074  16.056  27.085  1.00  0.00     0.037 C 
ENDBRANCH  16  19
ENDBRANCH   5  15
ENDBRANCH   3   4
ENDBRANCH   2   3
BRANCH   2  23
ATOM     23  O25 ZIN A   1       3.642   9.315  26.902  1.00  0.00    -0.392 OA
ATOM     24  H81 ZIN A   1       3.697   8.336  26.846  1.00  0.00     0.210 HD
ENDBRANCH   2  23
ENDBRANCH   1   2
BRANCH   1  25
ATOM     25  C28 ZIN A   1       6.443   7.945  27.088  1.00  0.00     0.066 C 
BRANCH  25  26
ATOM     26  C29 ZIN A   1       6.093   6.477  27.204  1.00  0.00    -0.056 C 
ATOM     27  C34 ZIN A   1       7.021   5.487  26.863  1.00  0.00     0.007 C 
ATOM     28  C33 ZIN A   1       6.660   4.135  26.857  1.00  0.00     0.001 C 
ATOM     29  C32 ZIN A   1       5.406   3.741  27.313  1.00  0.00     0.000 C 
ATOM     30  C31 ZIN A   1       4.516   4.702  27.771  1.00  0.00     0.001 C 
ATOM     31  C30 ZIN A   1       4.869   6.050  27.706  1.00  0.00     0.007 C 
ENDBRANCH  25  26
ENDBRANCH   1  25
BRANCH   1  32
ATOM     32  N35 ZIN A   1       5.560   7.852  24.771  1.00  0.00    -0.352 N 
ATOM     33  C36 ZIN A   1       6.392   7.671  23.680  1.00  0.00     0.241 C 
ATOM     34  O37 ZIN A   1       7.506   8.197  23.650  1.00  0.00    -0.271 OA
ATOM     35  H89 ZIN A   1       4.867   7.118  24.931  1.00  0.00     0.163 HD
BRANCH  33  36
ATOM     36  C38 ZIN A   1       5.845   6.807  22.502  1.00  0.00     0.185 C 
BRANCH  36  37
ATOM     37  C40 ZIN A   1       5.459   5.413  23.035  1.00  0.00     0.137 C 
BRANCH  37  38
ATOM     38  C41 ZIN A   1       4.782   4.545  21.982  1.00  0.00     0.217 C 
ATOM     39  N42 ZIN A   1       4.287   3.353  22.468  1.00  0.00    -0.370 N 
ATOM     40  H92 ZIN A   1       3.814   2.771  21.787  1.00  0.00     0.159 HD
ATOM     41  H93 ZIN A   1       4.010   3.239  23.428  1.00  0.00     0.159 HD
ATOM     42  O43 ZIN A   1       4.720   4.805  20.816  1.00  0.00    -0.274 OA
ENDBRANCH  37  38
ENDBRANCH  36  37
BRANCH  36  43
ATOM     43  N44 ZIN A   1       4.650   7.432  21.870  1.00  0.00    -0.342 N 
ATOM     44  C45 ZIN A   1       4.745   8.339  20.819  1.00  0.00     0.271 C 
ATOM     45  O46 ZIN A   1       5.847   8.683  20.385  1.00  0.00    -0.266 OA
ATOM     46  H94 ZIN A   1       3.761   7.325  22.345  1.00  0.00     0.163 HD
BRANCH  44  47
ATOM     47  C47 ZIN A   1       3.459   8.933  20.261  1.00  0.00     0.125 A 
ATOM     48  N56 ZIN A   1       3.623   9.827  19.250  1.00  0.00    -0.243 NA
ATOM     49  C55 ZIN A   1       2.555  10.512  18.799  1.00  0.00     0.068 A 
ATOM     50  C50 ZIN A   1       1.265  10.348  19.344  1.00  0.00    -0.007 A 
ATOM     51  C54 ZIN A   1       2.723  11.448  17.785  1.00  0.00     0.032 A 
ATOM     52  C49 ZIN A   1       1.100   9.344  20.313  1.00  0.00     0.016 A 
ATOM     53  C51 ZIN A   1       0.214  11.194  18.928  1.00  0.00     0.014 A 
ATOM     54  C48 ZIN A   1       2.205   8.622  20.776  1.00  0.00     0.038 A 
ATOM     55  C52 ZIN A   1       0.430  12.173  17.956  1.00  0.00     0.001 A 
ATOM     56  C53 ZIN A   1       1.680  12.278  17.359  1.00  0.00     0.002 A 
ENDBRANCH  44  47
ENDBRANCH  36  43
ENDBRANCH  33  36
ENDBRANCH   1  32
TORSDOF 14
ENDMDL
MODEL 5
REMARK VINA RESULT:    -7.132      4.656      8.204
REMARK INTER + INTRA:         -15.295
REMARK INTER:                 -11.681
REMARK INTRA:                  -3.614
REMARK UNBOUND:                -2.534
REMARK  14 active torsions:
REMARK  status: ('A' for Active; 'I' for Inactive)
REMARK    1  A    between atoms: C2_2  and  N5_5 
REMARK       I    between atoms: N5_5  and  C6_6 
REMARK    2  A    between atoms: C6_6  and  C8_8 
REMARK    3  A    between atoms: N20_17  and  C22_19 
REMARK    4  A    between atoms: C22_19  and  C23_20 
REMARK    5  A    between atoms: C23_20  and  O25_21 
REMARK    6  A    between atoms: C23_20  and  C26_22 
REMARK    7  A    between atoms: C26_22  and  C28_23 
REMARK    8  A    between atoms: C26_22  and  N35_30 
REMARK    9  A    between atoms: C28_23  and  C29_24 
REMARK       I    between atoms: N35_30  and  C36_31 
REMARK   10  A    between atoms: C36_31  and  C38_33 
REMARK   11  A    between atoms: C38_33  and  C40_34 
REMARK   12  A    between atoms: C38_33  and  N44_38 
REMARK   13  A    between atoms: C40_34  and  C41_35 
REMARK       I    between atoms: C41_35  and  N42_36 
REMARK       I    between atoms: N44_38  and  C45_39 
REMARK   14  A    between atoms: C45_39  and  C47_41 
ROOT
ATOM      1  C26 ZIN A   1       3.881   9.073  21.314  1.00  0.00     0.119 C 
ENDROOT
BRANCH   1   2
ATOM      2  C23 ZIN A   1       4.300   9.976  22.589  1.00  0.00     0.167 C 
BRANCH   2   3
ATOM      3  C22 ZIN A   1       3.160  10.435  23.567  1.00  0.00     0.269 C 
BRANCH   3   4
ATOM      4  N20 ZIN A   1       3.207  11.966  24.016  1.00  0.00    -0.055 N 
ATOM      5  C8  ZIN A   1       1.897  12.474  24.670  1.00  0.00     0.279 C 
ATOM      6  C10 ZIN A   1       0.864  12.881  23.591  1.00  0.00     0.048 C 
ATOM      7  C11 ZIN A   1       1.230  12.833  22.104  1.00  0.00    -0.006 C 
ATOM      8  C17 ZIN A   1       2.735  12.956  21.802  1.00  0.00     0.016 C 
ATOM      9  C13 ZIN A   1       0.363  13.841  21.302  1.00  0.00     0.005 C 
ATOM     10  C16 ZIN A   1       3.039  14.025  20.758  1.00  0.00     0.007 C 
ATOM     11  C19 ZIN A   1       3.648  13.010  23.022  1.00  0.00     0.241 C 
ATOM     12  C15 ZIN A   1       2.425  15.363  21.124  1.00  0.00     0.000 C 
ATOM     13  C14 ZIN A   1       0.907  15.274  21.268  1.00  0.00     0.000 C 
ATOM     14  H21 ZIN A   1       3.932  12.000  24.760  1.00  0.00     0.281 HD
BRANCH   5  15
ATOM     15  C6  ZIN A   1       2.089  13.700  25.657  1.00  0.00     0.249 C 
ATOM     16  N5  ZIN A   1       1.212  14.749  25.427  1.00  0.00    -0.351 N 
ATOM     17  H66 ZIN A   1       0.534  14.635  24.681  1.00  0.00     0.163 HD
ATOM     18  O7  ZIN A   1       2.967  13.697  26.518  1.00  0.00    -0.271 OA
BRANCH  16  19
ATOM     19  C2  ZIN A   1       1.137  16.079  26.084  1.00  0.00     0.022 C 
ATOM     20  C1  ZIN A   1       0.112  16.916  25.286  1.00  0.00     0.037 C 
ATOM     21  C3  ZIN A   1       2.480  16.829  26.058  1.00  0.00     0.037 C 
ATOM     22  C4  ZIN A   1       0.614  15.983  27.522  1.00  0.00     0.037 C 
ENDBRANCH  16  19
ENDBRANCH   5  15
ENDBRANCH   3   4
ENDBRANCH   2   3
BRANCH   2  23
ATOM     23  O25 ZIN A   1       5.147   9.231  23.479  1.00  0.00    -0.392 OA
ATOM     24  H81 ZIN A   1       6.078   9.317  23.178  1.00  0.00     0.210 HD
ENDBRANCH   2  23
ENDBRANCH   1   2
BRANCH   1  25
ATOM     25  C28 ZIN A   1       3.856   9.696  19.879  1.00  0.00     0.066 C 
BRANCH  25  26
ATOM     26  C29 ZIN A   1       2.599  10.364  19.368  1.00  0.00    -0.056 C 
ATOM     27  C34 ZIN A   1       1.354  10.097  19.949  1.00  0.00     0.007 C 
ATOM     28  C33 ZIN A   1       0.178  10.623  19.403  1.00  0.00     0.001 C 
ATOM     29  C32 ZIN A   1       0.237  11.525  18.345  1.00  0.00     0.000 C 
ATOM     30  C31 ZIN A   1       1.473  11.896  17.836  1.00  0.00     0.001 C 
ATOM     31  C30 ZIN A   1       2.630  11.310  18.350  1.00  0.00     0.007 C 
ENDBRANCH  25  26
ENDBRANCH   1  25
BRANCH   1  32
ATOM     32  N35 ZIN A   1       4.639   7.780  21.248  1.00  0.00    -0.352 N 
ATOM     33  C36 ZIN A   1       4.015   6.548  21.151  1.00  0.00     0.241 C 
ATOM     34  O37 ZIN A   1       2.795   6.476  20.992  1.00  0.00    -0.271 OA
ATOM     35  H89 ZIN A   1       5.624   7.805  20.980  1.00  0.00     0.163 HD
BRANCH  33  36
ATOM     36  C38 ZIN A   1       4.918   5.282  21.276  1.00  0.00     0.185 C 
BRANCH  36  37
ATOM     37  C40 ZIN A   1       6.123   5.425  20.325  1.00  0.00     0.137 C 
BRANCH  37  38
ATOM     38  C41 ZIN A   1       6.946   4.147  20.220  1.00  0.00     0.217 C 
ATOM     39  N42 ZIN A   1       6.670   3.391  19.101  1.00  0.00    -0.370 N 
ATOM     40  H92 ZIN A   1       7.224   2.547  19.001  1.00  0.00     0.159 HD
ATOM     41  H93 ZIN A   1       6.313   3.797  18.253  1.00  0.00     0.159 HD
ATOM     42  O43 ZIN A   1       7.725   3.764  21.043  1.00  0.00    -0.274 OA
ENDBRANCH  37  38
ENDBRANCH  36  37
BRANCH  36  43
ATOM     43  N44 ZIN A   1       5.417   5.098  22.666  1.00  0.00    -0.342 N 
ATOM     44  C45 ZIN A   1       5.129   3.965  23.423  1.00  0.00     0.271 C 
ATOM     45  O46 ZIN A   1       4.415   3.070  22.967  1.00  0.00    -0.266 OA
ATOM     46  H94 ZIN A   1       5.824   5.903  23.127  1.00  0.00     0.163 HD
BRANCH  44  47
ATOM     47  C47 ZIN A   1       5.675   3.889  24.842  1.00  0.00     0.125 A 
ATOM     48  N56 ZIN A   1       6.856   3.229  24.975  1.00  0.00    -0.243 NA
ATOM     49  C55 ZIN A   1       7.336   2.983  26.209  1.00  0.00     0.068 A 
ATOM     50  C50 ZIN A   1       6.653   3.374  27.379  1.00  0.00    -0.007 A 
ATOM     51  C54 ZIN A   1       8.529   2.284  26.351  1.00  0.00     0.032 A 
ATOM     52  C49 ZIN A   1       5.490   4.146  27.217  1.00  0.00     0.016 A 
ATOM     53  C51 ZIN A   1       7.133   2.965  28.643  1.00  0.00     0.014 A 
ATOM     54  C48 ZIN A   1       4.995   4.414  25.936  1.00  0.00     0.038 A 
ATOM     55  C52 ZIN A   1       8.298   2.204  28.749  1.00  0.00     0.001 A 
ATOM     56  C53 ZIN A   1       9.016   1.890  27.602  1.00  0.00     0.002 A 
ENDBRANCH  44  47
ENDBRANCH  36  43
ENDBRANCH  33  36
ENDBRANCH   1  32
TORSDOF 14
ENDMDL
