MODEL 1
REMARK VINA RESULT:    -7.973      0.000      0.000
REMARK INTER + INTRA:         -16.076
REMARK INTER:                 -11.928
REMARK INTRA:                  -4.147
REMARK UNBOUND:                -2.509
REMARK  12 active torsions:
REMARK  status: ('A' for Active; 'I' for Inactive)
REMARK    1  A    between atoms: C2_2  and  C3_3 
REMARK    2  A    between atoms: C3_3  and  C4_4 
REMARK    3  A    between atoms: C4_4  and  C5_5 
REMARK    4  A    between atoms: C5_5  and  C6_6 
REMARK    5  A    between atoms: C6_6  and  C7_7 
REMARK    6  A    between atoms: C16_16  and  C17_17 
REMARK    7  A    between atoms: C17_17  and  C19_18 
REMARK    8  A    between atoms: C17_17  and  C21_20 
REMARK    9  A    between atoms: C25_24  and  N26_25 
REMARK   10  A    between atoms: N26_25  and  S27_26 
REMARK   11  A    between atoms: S27_26  and  C30_29 
REMARK   12  A    between atoms: C33_32  and  C34_33 
ROOT
ATOM      1  C17 ZIN A   1       7.649  -4.905  29.295  1.00  0.00     0.039 C 
ENDROOT
BRANCH   1   2
ATOM      2  C16 ZIN A   1       8.402  -6.225  29.749  1.00  0.00     0.163 C 
ATOM      3  C14 ZIN A   1       9.434  -6.153  30.841  1.00  0.00     0.144 C 
ATOM      4  C13 ZIN A   1      10.888  -6.426  30.551  1.00  0.00     0.118 C 
ATOM      5  O15 ZIN A   1       9.104  -5.880  32.002  1.00  0.00    -0.297 OA
ATOM      6  C4  ZIN A   1      11.229  -7.051  29.162  1.00  0.00     0.077 C 
ATOM      7  O43 ZIN A   1      10.086  -7.372  28.360  1.00  0.00    -0.309 OA
ATOM      8  C41 ZIN A   1       8.796  -7.090  28.592  1.00  0.00     0.271 C 
ATOM      9  O42 ZIN A   1       7.938  -7.586  27.862  1.00  0.00    -0.264 OA
BRANCH   6  10
ATOM     10  C3  ZIN A   1      12.089  -6.082  28.374  1.00  0.00     0.038 C 
BRANCH  10  11
ATOM     11  C2  ZIN A   1      13.152  -5.081  29.090  1.00  0.00    -0.002 C 
ATOM     12  C1  ZIN A   1      14.687  -5.119  29.498  1.00  0.00     0.005 C 
ENDBRANCH  10  11
ENDBRANCH   6  10
BRANCH   6  13
ATOM     13  C5  ZIN A   1      12.109  -8.301  29.329  1.00  0.00     0.043 C 
BRANCH  13  14
ATOM     14  C6  ZIN A   1      12.511  -8.708  30.780  1.00  0.00     0.041 C 
BRANCH  14  15
ATOM     15  C7  ZIN A   1      13.960  -8.438  31.045  1.00  0.00    -0.058 A 
ATOM     16  C12 ZIN A   1      15.021  -8.797  30.191  1.00  0.00     0.007 A 
ATOM     17  C11 ZIN A   1      16.323  -8.411  30.523  1.00  0.00     0.001 A 
ATOM     18  C10 ZIN A   1      16.550  -7.652  31.671  1.00  0.00     0.000 A 
ATOM     19  C9  ZIN A   1      15.498  -7.340  32.524  1.00  0.00     0.001 A 
ATOM     20  C8  ZIN A   1      14.220  -7.765  32.228  1.00  0.00     0.007 A 
ENDBRANCH  14  15
ENDBRANCH  13  14
ENDBRANCH   6  13
ENDBRANCH   1   2
BRANCH   1  21
ATOM     21  C19 ZIN A   1       6.832  -4.265  30.465  1.00  0.00     0.006 C 
ATOM     22  C20 ZIN A   1       6.385  -2.811  30.281  1.00  0.00     0.006 C 
ENDBRANCH   1  21
BRANCH   1  23
ATOM     23  C21 ZIN A   1       8.436  -3.885  28.467  1.00  0.00    -0.051 C 
ATOM     24  C40 ZIN A   1       9.637  -3.320  28.898  1.00  0.00     0.032 C 
ATOM     25  C25 ZIN A   1      10.327  -2.370  28.113  1.00  0.00     0.023 C 
ATOM     26  C24 ZIN A   1       9.888  -2.063  26.840  1.00  0.00     0.024 C 
ATOM     27  C23 ZIN A   1       8.678  -2.554  26.413  1.00  0.00     0.002 C 
ATOM     28  C22 ZIN A   1       7.952  -3.438  27.220  1.00  0.00     0.007 C 
BRANCH  25  29
ATOM     29  N26 ZIN A   1      11.591  -1.793  28.459  1.00  0.00    -0.180 NA
ATOM     30  H   ZIN A   1      12.218  -2.364  29.002  1.00  0.00     0.146 HD
BRANCH  29  31
ATOM     31  S27 ZIN A   1      11.420  -0.468  29.400  1.00  0.00     0.263 S 
ATOM     32  O28 ZIN A   1      11.835  -0.980  30.614  1.00  0.00    -0.204 OA
ATOM     33  O29 ZIN A   1      12.051   0.700  28.630  1.00  0.00    -0.204 OA
BRANCH  31  34
ATOM     34  C30 ZIN A   1       9.791  -0.094  29.918  1.00  0.00     0.166 C 
ATOM     35  N39 ZIN A   1       9.092   0.862  29.266  1.00  0.00    -0.247 NA
ATOM     36  C38 ZIN A   1       7.999   1.304  29.907  1.00  0.00     0.134 C 
ATOM     37  C33 ZIN A   1       7.564   0.745  31.107  1.00  0.00     0.065 C 
ATOM     38  C32 ZIN A   1       8.402  -0.083  31.835  1.00  0.00     0.021 C 
ATOM     39  C31 ZIN A   1       9.589  -0.434  31.263  1.00  0.00     0.046 C 
BRANCH  37  40
ATOM     40  C34 ZIN A   1       6.140   0.884  31.493  1.00  0.00     0.418 C 
ATOM     41  F35 ZIN A   1       5.294   0.360  30.567  1.00  0.00    -0.166 F 
ATOM     42  F36 ZIN A   1       5.849   0.298  32.676  1.00  0.00    -0.166 F 
ATOM     43  F37 ZIN A   1       5.800   2.196  31.606  1.00  0.00    -0.166 F 
ENDBRANCH  37  40
ENDBRANCH  31  34
ENDBRANCH  29  31
ENDBRANCH  25  29
ENDBRANCH   1  23
TORSDOF 12
ENDMDL
MODEL 2
REMARK VINA RESULT:    -7.652     19.028     21.579
REMARK INTER + INTRA:         -15.530
REMARK INTER:                 -11.141
REMARK INTRA:                  -4.389
REMARK UNBOUND:                -2.509
REMARK  12 active torsions:
REMARK  status: ('A' for Active; 'I' for Inactive)
REMARK    1  A    between atoms: C2_2  and  C3_3 
REMARK    2  A    between atoms: C3_3  and  C4_4 
REMARK    3  A    between atoms: C4_4  and  C5_5 
REMARK    4  A    between atoms: C5_5  and  C6_6 
REMARK    5  A    between atoms: C6_6  and  C7_7 
REMARK    6  A    between atoms: C16_16  and  C17_17 
REMARK    7  A    between atoms: C17_17  and  C19_18 
REMARK    8  A    between atoms: C17_17  and  C21_20 
REMARK    9  A    between atoms: C25_24  and  N26_25 
REMARK   10  A    between atoms: N26_25  and  S27_26 
REMARK   11  A    between atoms: S27_26  and  C30_29 
REMARK   12  A    between atoms: C33_32  and  C34_33 
ROOT
ATOM      1  C17 ZIN A   1      13.908  -3.694   7.495  1.00  0.00     0.039 C 
ENDROOT
BRANCH   1   2
ATOM      2  C16 ZIN A   1      13.410  -5.199   7.495  1.00  0.00     0.163 C 
ATOM      3  C14 ZIN A   1      12.185  -5.577   6.707  1.00  0.00     0.144 C 
ATOM      4  C13 ZIN A   1      10.931  -6.040   7.403  1.00  0.00     0.118 C 
ATOM      5  O15 ZIN A   1      12.190  -5.524   5.471  1.00  0.00    -0.297 OA
ATOM      6  C4  ZIN A   1      11.045  -6.377   8.922  1.00  0.00     0.077 C 
ATOM      7  O43 ZIN A   1      12.373  -6.286   9.451  1.00  0.00    -0.309 OA
ATOM      8  C41 ZIN A   1      13.482  -5.830   8.851  1.00  0.00     0.271 C 
ATOM      9  O42 ZIN A   1      14.566  -5.974   9.416  1.00  0.00    -0.264 OA
BRANCH   6  10
ATOM     10  C3  ZIN A   1      10.165  -5.429   9.714  1.00  0.00     0.038 C 
BRANCH  10  11
ATOM     11  C2  ZIN A   1       9.865  -5.639  11.299  1.00  0.00    -0.002 C 
ATOM     12  C1  ZIN A   1      10.708  -5.974  12.603  1.00  0.00     0.005 C 
ENDBRANCH  10  11
ENDBRANCH   6  10
BRANCH   6  13
ATOM     13  C5  ZIN A   1      10.469  -7.773   9.215  1.00  0.00     0.043 C 
BRANCH  13  14
ATOM     14  C6  ZIN A   1      11.459  -8.978   9.185  1.00  0.00     0.041 C 
BRANCH  14  15
ATOM     15  C7  ZIN A   1      12.001  -9.211   7.809  1.00  0.00    -0.058 A 
ATOM     16  C12 ZIN A   1      11.223  -9.493   6.668  1.00  0.00     0.007 A 
ATOM     17  C11 ZIN A   1      11.853  -9.608   5.425  1.00  0.00     0.001 A 
ATOM     18  C10 ZIN A   1      13.231  -9.413   5.326  1.00  0.00     0.000 A 
ATOM     19  C9  ZIN A   1      13.989  -9.176   6.466  1.00  0.00     0.001 A 
ATOM     20  C8  ZIN A   1      13.379  -9.115   7.701  1.00  0.00     0.007 A 
ENDBRANCH  14  15
ENDBRANCH  13  14
ENDBRANCH   6  13
ENDBRANCH   1   2
BRANCH   1  21
ATOM     21  C19 ZIN A   1      15.349  -3.554   6.902  1.00  0.00     0.006 C 
ATOM     22  C20 ZIN A   1      15.846  -4.702   6.016  1.00  0.00     0.006 C 
ENDBRANCH   1  21
BRANCH   1  23
ATOM     23  C21 ZIN A   1      12.934  -2.621   6.999  1.00  0.00    -0.051 C 
ATOM     24  C40 ZIN A   1      11.903  -2.110   7.787  1.00  0.00     0.032 C 
ATOM     25  C25 ZIN A   1      11.014  -1.131   7.289  1.00  0.00     0.023 C 
ATOM     26  C24 ZIN A   1      11.217  -0.568   6.045  1.00  0.00     0.024 C 
ATOM     27  C23 ZIN A   1      12.185  -1.094   5.223  1.00  0.00     0.002 C 
ATOM     28  C22 ZIN A   1      13.020  -2.118   5.685  1.00  0.00     0.007 C 
BRANCH  25  29
ATOM     29  N26 ZIN A   1       9.971  -0.515   8.054  1.00  0.00    -0.180 NA
ATOM     30  H   ZIN A   1      10.223  -0.162   8.964  1.00  0.00     0.146 HD
BRANCH  29  31
ATOM     31  S27 ZIN A   1       8.770  -1.565   8.406  1.00  0.00     0.263 S 
ATOM     32  O28 ZIN A   1       7.710  -0.688   8.529  1.00  0.00    -0.204 OA
ATOM     33  O29 ZIN A   1       8.895  -2.723   7.407  1.00  0.00    -0.204 OA
BRANCH  31  34
ATOM     34  C30 ZIN A   1       8.709  -2.143  10.058  1.00  0.00     0.166 C 
ATOM     35  N39 ZIN A   1       7.519  -2.502  10.590  1.00  0.00    -0.247 NA
ATOM     36  C38 ZIN A   1       7.508  -2.625  11.926  1.00  0.00     0.134 C 
ATOM     37  C33 ZIN A   1       8.662  -2.492  12.695  1.00  0.00     0.065 C 
ATOM     38  C32 ZIN A   1       9.805  -1.935  12.145  1.00  0.00     0.021 C 
ATOM     39  C31 ZIN A   1       9.792  -1.666  10.808  1.00  0.00     0.046 C 
BRANCH  37  40
ATOM     40  C34 ZIN A   1       8.715  -3.128  14.032  1.00  0.00     0.418 C 
ATOM     41  F35 ZIN A   1       9.980  -3.465  14.400  1.00  0.00    -0.166 F 
ATOM     42  F36 ZIN A   1       8.208  -2.348  15.013  1.00  0.00    -0.166 F 
ATOM     43  F37 ZIN A   1       8.004  -4.287  14.040  1.00  0.00    -0.166 F 
ENDBRANCH  37  40
ENDBRANCH  31  34
ENDBRANCH  29  31
ENDBRANCH  25  29
ENDBRANCH   1  23
TORSDOF 12
ENDMDL
MODEL 3
REMARK VINA RESULT:    -7.619      4.077      9.482
REMARK INTER + INTRA:         -15.474
REMARK INTER:                 -11.517
REMARK INTRA:                  -3.957
REMARK UNBOUND:                -2.509
REMARK  12 active torsions:
REMARK  status: ('A' for Active; 'I' for Inactive)
REMARK    1  A    between atoms: C2_2  and  C3_3 
REMARK    2  A    between atoms: C3_3  and  C4_4 
REMARK    3  A    between atoms: C4_4  and  C5_5 
REMARK    4  A    between atoms: C5_5  and  C6_6 
REMARK    5  A    between atoms: C6_6  and  C7_7 
REMARK    6  A    between atoms: C16_16  and  C17_17 
REMARK    7  A    between atoms: C17_17  and  C19_18 
REMARK    8  A    between atoms: C17_17  and  C21_20 
REMARK    9  A    between atoms: C25_24  and  N26_25 
REMARK   10  A    between atoms: N26_25  and  S27_26 
REMARK   11  A    between atoms: S27_26  and  C30_29 
REMARK   12  A    between atoms: C33_32  and  C34_33 
ROOT
ATOM      1  C17 ZIN A   1      11.222  -2.507  29.660  1.00  0.00     0.039 C 
ENDROOT
BRANCH   1   2
ATOM      2  C16 ZIN A   1      10.865  -1.167  30.428  1.00  0.00     0.163 C 
ATOM      3  C14 ZIN A   1       9.798  -1.179  31.488  1.00  0.00     0.144 C 
ATOM      4  C13 ZIN A   1       8.507  -0.425  31.294  1.00  0.00     0.118 C 
ATOM      5  O15 ZIN A   1       9.966  -1.802  32.544  1.00  0.00    -0.297 OA
ATOM      6  C4  ZIN A   1       8.443   0.578  30.101  1.00  0.00     0.077 C 
ATOM      7  O43 ZIN A   1       9.673   0.721  29.381  1.00  0.00    -0.309 OA
ATOM      8  C41 ZIN A   1      10.809   0.021  29.518  1.00  0.00     0.271 C 
ATOM      9  O42 ZIN A   1      11.814   0.394  28.914  1.00  0.00    -0.264 OA
BRANCH   6  10
ATOM     10  C3  ZIN A   1       7.382   0.122  29.118  1.00  0.00     0.038 C 
BRANCH  10  11
ATOM     11  C2  ZIN A   1       6.117  -0.796  29.568  1.00  0.00    -0.002 C 
ATOM     12  C1  ZIN A   1       4.642  -0.554  30.104  1.00  0.00     0.005 C 
ENDBRANCH  10  11
ENDBRANCH   6  10
BRANCH   6  13
ATOM     13  C5  ZIN A   1       7.961   1.959  30.576  1.00  0.00     0.043 C 
BRANCH  13  14
ATOM     14  C6  ZIN A   1       7.035   2.766  29.615  1.00  0.00     0.041 C 
BRANCH  14  15
ATOM     15  C7  ZIN A   1       5.733   3.113  30.267  1.00  0.00    -0.058 A 
ATOM     16  C12 ZIN A   1       4.642   3.730  29.622  1.00  0.00     0.007 A 
ATOM     17  C11 ZIN A   1       3.453   3.924  30.331  1.00  0.00     0.001 A 
ATOM     18  C10 ZIN A   1       3.350   3.477  31.648  1.00  0.00     0.000 A 
ATOM     19  C9  ZIN A   1       4.447   2.906  32.282  1.00  0.00     0.001 A 
ATOM     20  C8  ZIN A   1       5.639   2.763  31.604  1.00  0.00     0.007 A 
ENDBRANCH  14  15
ENDBRANCH  13  14
ENDBRANCH   6  13
ENDBRANCH   1   2
BRANCH   1  21
ATOM     21  C19 ZIN A   1      11.809  -3.594  30.619  1.00  0.00     0.006 C 
ATOM     22  C20 ZIN A   1      12.923  -4.482  30.057  1.00  0.00     0.006 C 
ENDBRANCH   1  21
BRANCH   1  23
ATOM     23  C21 ZIN A   1      10.191  -3.056  28.668  1.00  0.00    -0.051 C 
ATOM     24  C40 ZIN A   1       9.067  -3.781  29.065  1.00  0.00     0.032 C 
ATOM     25  C25 ZIN A   1       8.146  -4.285  28.119  1.00  0.00     0.023 C 
ATOM     26  C24 ZIN A   1       8.274  -3.970  26.781  1.00  0.00     0.024 C 
ATOM     27  C23 ZIN A   1       9.401  -3.312  26.353  1.00  0.00     0.002 C 
ATOM     28  C22 ZIN A   1      10.356  -2.877  27.279  1.00  0.00     0.007 C 
BRANCH  25  29
ATOM     29  N26 ZIN A   1       6.941  -4.985  28.451  1.00  0.00    -0.180 NA
ATOM     30  H   ZIN A   1       6.581  -4.852  29.382  1.00  0.00     0.146 HD
BRANCH  29  31
ATOM     31  S27 ZIN A   1       7.135  -6.606  28.377  1.00  0.00     0.263 S 
ATOM     32  O28 ZIN A   1       6.420  -6.985  29.496  1.00  0.00    -0.204 OA
ATOM     33  O29 ZIN A   1       6.857  -7.014  26.925  1.00  0.00    -0.204 OA
BRANCH  31  34
ATOM     34  C30 ZIN A   1       8.674  -7.224  28.938  1.00  0.00     0.166 C 
ATOM     35  N39 ZIN A   1       8.979  -7.148  30.253  1.00  0.00    -0.247 NA
ATOM     36  C38 ZIN A   1      10.273  -7.344  30.548  1.00  0.00     0.134 C 
ATOM     37  C33 ZIN A   1      11.211  -7.701  29.582  1.00  0.00     0.065 C 
ATOM     38  C32 ZIN A   1      10.907  -7.575  28.236  1.00  0.00     0.021 C 
ATOM     39  C31 ZIN A   1       9.627  -7.235  27.910  1.00  0.00     0.046 C 
BRANCH  37  40
ATOM     40  C34 ZIN A   1      12.450  -8.396  30.001  1.00  0.00     0.418 C 
ATOM     41  F35 ZIN A   1      13.569  -7.666  29.749  1.00  0.00    -0.166 F 
ATOM     42  F36 ZIN A   1      12.466  -8.710  31.317  1.00  0.00    -0.166 F 
ATOM     43  F37 ZIN A   1      12.603  -9.560  29.314  1.00  0.00    -0.166 F 
ENDBRANCH  37  40
ENDBRANCH  31  34
ENDBRANCH  29  31
ENDBRANCH  25  29
ENDBRANCH   1  23
TORSDOF 12
ENDMDL
MODEL 4
REMARK VINA RESULT:    -7.528      2.109      3.393
REMARK INTER + INTRA:         -15.319
REMARK INTER:                 -13.200
REMARK INTRA:                  -2.119
REMARK UNBOUND:                -2.509
REMARK  12 active torsions:
REMARK  status: ('A' for Active; 'I' for Inactive)
REMARK    1  A    between atoms: C2_2  and  C3_3 
REMARK    2  A    between atoms: C3_3  and  C4_4 
REMARK    3  A    between atoms: C4_4  and  C5_5 
REMARK    4  A    between atoms: C5_5  and  C6_6 
REMARK    5  A    between atoms: C6_6  and  C7_7 
REMARK    6  A    between atoms: C16_16  and  C17_17 
REMARK    7  A    between atoms: C17_17  and  C19_18 
REMARK    8  A    between atoms: C17_17  and  C21_20 
REMARK    9  A    between atoms: C25_24  and  N26_25 
REMARK   10  A    between atoms: N26_25  and  S27_26 
REMARK   11  A    between atoms: S27_26  and  C30_29 
REMARK   12  A    between atoms: C33_32  and  C34_33 
ROOT
ATOM      1  C17 ZIN A   1      10.118  -4.134  27.311  1.00  0.00     0.039 C 
ENDROOT
BRANCH   1   2
ATOM      2  C16 ZIN A   1      11.212  -5.278  27.407  1.00  0.00     0.163 C 
ATOM      3  C14 ZIN A   1      10.811  -6.652  27.868  1.00  0.00     0.144 C 
ATOM      4  C13 ZIN A   1      11.323  -7.210  29.172  1.00  0.00     0.118 C 
ATOM      5  O15 ZIN A   1      10.061  -7.355  27.179  1.00  0.00    -0.297 OA
ATOM      6  C4  ZIN A   1      12.485  -6.436  29.868  1.00  0.00     0.077 C 
ATOM      7  O43 ZIN A   1      12.985  -5.321  29.120  1.00  0.00    -0.309 OA
ATOM      8  C41 ZIN A   1      12.505  -4.792  27.985  1.00  0.00     0.271 C 
ATOM      9  O42 ZIN A   1      13.164  -3.929  27.406  1.00  0.00    -0.264 OA
BRANCH   6  10
ATOM     10  C3  ZIN A   1      12.008  -5.916  31.210  1.00  0.00     0.038 C 
BRANCH  10  11
ATOM     11  C2  ZIN A   1      10.463  -6.060  31.700  1.00  0.00    -0.002 C 
ATOM     12  C1  ZIN A   1       9.051  -5.477  31.266  1.00  0.00     0.005 C 
ENDBRANCH  10  11
ENDBRANCH   6  10
BRANCH   6  13
ATOM     13  C5  ZIN A   1      13.644  -7.386  30.212  1.00  0.00     0.043 C 
BRANCH  13  14
ATOM     14  C6  ZIN A   1      15.075  -6.772  30.295  1.00  0.00     0.041 C 
BRANCH  14  15
ATOM     15  C7  ZIN A   1      16.052  -7.733  30.900  1.00  0.00    -0.058 A 
ATOM     16  C12 ZIN A   1      16.667  -7.579  32.158  1.00  0.00     0.007 A 
ATOM     17  C11 ZIN A   1      17.500  -8.594  32.638  1.00  0.00     0.001 A 
ATOM     18  C10 ZIN A   1      17.683  -9.754  31.885  1.00  0.00     0.000 A 
ATOM     19  C9  ZIN A   1      17.102  -9.873  30.629  1.00  0.00     0.001 A 
ATOM     20  C8  ZIN A   1      16.324  -8.851  30.128  1.00  0.00     0.007 A 
ENDBRANCH  14  15
ENDBRANCH  13  14
ENDBRANCH   6  13
ENDBRANCH   1   2
BRANCH   1  21
ATOM     21  C19 ZIN A   1       8.683  -4.668  27.628  1.00  0.00     0.006 C 
ATOM     22  C20 ZIN A   1       7.513  -3.947  26.951  1.00  0.00     0.006 C 
ENDBRANCH   1  21
BRANCH   1  23
ATOM     23  C21 ZIN A   1      10.433  -2.790  27.975  1.00  0.00    -0.051 C 
ATOM     24  C40 ZIN A   1      10.487  -2.620  29.358  1.00  0.00     0.032 C 
ATOM     25  C25 ZIN A   1      10.765  -1.360  29.935  1.00  0.00     0.023 C 
ATOM     26  C24 ZIN A   1      11.108  -0.287  29.137  1.00  0.00     0.024 C 
ATOM     27  C23 ZIN A   1      11.004  -0.406  27.772  1.00  0.00     0.002 C 
ATOM     28  C22 ZIN A   1      10.654  -1.633  27.198  1.00  0.00     0.007 C 
BRANCH  25  29
ATOM     29  N26 ZIN A   1      10.897  -1.120  31.341  1.00  0.00    -0.180 NA
ATOM     30  H   ZIN A   1      11.247  -1.881  31.900  1.00  0.00     0.146 HD
BRANCH  29  31
ATOM     31  S27 ZIN A   1       9.456  -0.802  32.043  1.00  0.00     0.263 S 
ATOM     32  O28 ZIN A   1       8.924  -2.075  32.090  1.00  0.00    -0.204 OA
ATOM     33  O29 ZIN A   1       9.745   0.119  33.236  1.00  0.00    -0.204 OA
BRANCH  31  34
ATOM     34  C30 ZIN A   1       8.219  -0.136  30.999  1.00  0.00     0.166 C 
ATOM     35  N39 ZIN A   1       7.525  -0.962  30.184  1.00  0.00    -0.247 NA
ATOM     36  C38 ZIN A   1       6.836  -0.352  29.208  1.00  0.00     0.134 C 
ATOM     37  C33 ZIN A   1       6.761   1.036  29.107  1.00  0.00     0.065 C 
ATOM     38  C32 ZIN A   1       7.633   1.835  29.827  1.00  0.00     0.021 C 
ATOM     39  C31 ZIN A   1       8.450   1.220  30.729  1.00  0.00     0.046 C 
BRANCH  37  40
ATOM     40  C34 ZIN A   1       5.621   1.646  28.383  1.00  0.00     0.418 C 
ATOM     41  F35 ZIN A   1       4.421   1.336  28.941  1.00  0.00    -0.166 F 
ATOM     42  F36 ZIN A   1       5.693   2.995  28.316  1.00  0.00    -0.166 F 
ATOM     43  F37 ZIN A   1       5.566   1.188  27.104  1.00  0.00    -0.166 F 
ENDBRANCH  37  40
ENDBRANCH  31  34
ENDBRANCH  29  31
ENDBRANCH  25  29
ENDBRANCH   1  23
TORSDOF 12
ENDMDL
MODEL 5
REMARK VINA RESULT:    -7.487      2.951      5.051
REMARK INTER + INTRA:         -15.249
REMARK INTER:                 -11.850
REMARK INTRA:                  -3.399
REMARK UNBOUND:                -2.509
REMARK  12 active torsions:
REMARK  status: ('A' for Active; 'I' for Inactive)
REMARK    1  A    between atoms: C2_2  and  C3_3 
REMARK    2  A    between atoms: C3_3  and  C4_4 
REMARK    3  A    between atoms: C4_4  and  C5_5 
REMARK    4  A    between atoms: C5_5  and  C6_6 
REMARK    5  A    between atoms: C6_6  and  C7_7 
REMARK    6  A    between atoms: C16_16  and  C17_17 
REMARK    7  A    between atoms: C17_17  and  C19_18 
REMARK    8  A    between atoms: C17_17  and  C21_20 
REMARK    9  A    between atoms: C25_24  and  N26_25 
REMARK   10  A    between atoms: N26_25  and  S27_26 
REMARK   11  A    between atoms: S27_26  and  C30_29 
REMARK   12  A    between atoms: C33_32  and  C34_33 
ROOT
ATOM      1  C17 ZIN A   1       8.988  -0.907  31.033  1.00  0.00     0.039 C 
ENDROOT
BRANCH   1   2
ATOM      2  C16 ZIN A   1      10.389  -1.435  30.512  1.00  0.00     0.163 C 
ATOM      3  C14 ZIN A   1      10.948  -0.906  29.219  1.00  0.00     0.144 C 
ATOM      4  C13 ZIN A   1      11.107  -1.805  28.020  1.00  0.00     0.118 C 
ATOM      5  O15 ZIN A   1      11.298   0.277  29.121  1.00  0.00    -0.297 OA
ATOM      6  C4  ZIN A   1      10.940  -3.338  28.256  1.00  0.00     0.077 C 
ATOM      7  O43 ZIN A   1      10.739  -3.709  29.625  1.00  0.00    -0.309 OA
ATOM      8  C41 ZIN A   1      10.550  -2.913  30.688  1.00  0.00     0.271 C 
ATOM      9  O42 ZIN A   1      10.550  -3.412  31.813  1.00  0.00    -0.264 OA
BRANCH   6  10
ATOM     10  C3  ZIN A   1       9.750  -3.841  27.462  1.00  0.00     0.038 C 
BRANCH  10  11
ATOM     11  C2  ZIN A   1       9.027  -2.943  26.314  1.00  0.00    -0.002 C 
ATOM     12  C1  ZIN A   1       7.731  -3.052  25.402  1.00  0.00     0.005 C 
ENDBRANCH  10  11
ENDBRANCH   6  10
BRANCH   6  13
ATOM     13  C5  ZIN A   1      12.140  -4.112  27.684  1.00  0.00     0.043 C 
BRANCH  13  14
ATOM     14  C6  ZIN A   1      13.095  -4.809  28.701  1.00  0.00     0.041 C 
BRANCH  14  15
ATOM     15  C7  ZIN A   1      12.670  -6.218  28.977  1.00  0.00    -0.058 A 
ATOM     16  C12 ZIN A   1      11.667  -6.915  28.274  1.00  0.00     0.007 A 
ATOM     17  C11 ZIN A   1      11.426  -8.257  28.583  1.00  0.00     0.001 A 
ATOM     18  C10 ZIN A   1      12.198  -8.895  29.553  1.00  0.00     0.000 A 
ATOM     19  C9  ZIN A   1      13.157  -8.183  30.265  1.00  0.00     0.001 A 
ATOM     20  C8  ZIN A   1      13.360  -6.845  30.002  1.00  0.00     0.007 A 
ENDBRANCH  14  15
ENDBRANCH  13  14
ENDBRANCH   6  13
ENDBRANCH   1   2
BRANCH   1  21
ATOM     21  C19 ZIN A   1       9.147   0.138  32.186  1.00  0.00     0.006 C 
ATOM     22  C20 ZIN A   1       9.521  -0.410  33.567  1.00  0.00     0.006 C 
ENDBRANCH   1  21
BRANCH   1  23
ATOM     23  C21 ZIN A   1       7.941  -0.512  29.987  1.00  0.00    -0.051 C 
ATOM     24  C40 ZIN A   1       7.657   0.814  29.660  1.00  0.00     0.032 C 
ATOM     25  C25 ZIN A   1       6.673   1.141  28.700  1.00  0.00     0.023 C 
ATOM     26  C24 ZIN A   1       6.049   0.147  27.973  1.00  0.00     0.024 C 
ATOM     27  C23 ZIN A   1       6.261  -1.167  28.314  1.00  0.00     0.002 C 
ATOM     28  C22 ZIN A   1       7.180  -1.493  29.319  1.00  0.00     0.007 C 
BRANCH  25  29
ATOM     29  N26 ZIN A   1       6.368   2.472  28.268  1.00  0.00    -0.180 NA
ATOM     30  H   ZIN A   1       7.146   3.049  27.992  1.00  0.00     0.146 HD
BRANCH  29  31
ATOM     31  S27 ZIN A   1       5.680   3.357  29.457  1.00  0.00     0.263 S 
ATOM     32  O28 ZIN A   1       6.530   4.445  29.470  1.00  0.00    -0.204 OA
ATOM     33  O29 ZIN A   1       4.172   3.370  29.175  1.00  0.00    -0.204 OA
BRANCH  31  34
ATOM     34  C30 ZIN A   1       6.026   2.849  31.096  1.00  0.00     0.166 C 
ATOM     35  N39 ZIN A   1       5.048   2.272  31.830  1.00  0.00    -0.247 NA
ATOM     36  C38 ZIN A   1       5.291   2.206  33.148  1.00  0.00     0.134 C 
ATOM     37  C33 ZIN A   1       6.505   2.608  33.702  1.00  0.00     0.065 C 
ATOM     38  C32 ZIN A   1       7.393   3.367  32.957  1.00  0.00     0.021 C 
ATOM     39  C31 ZIN A   1       7.095   3.571  31.642  1.00  0.00     0.046 C 
BRANCH  37  40
ATOM     40  C34 ZIN A   1       6.919   2.053  35.012  1.00  0.00     0.418 C 
ATOM     41  F35 ZIN A   1       6.673   0.721  35.117  1.00  0.00    -0.166 F 
ATOM     42  F36 ZIN A   1       8.233   2.238  35.277  1.00  0.00    -0.166 F 
ATOM     43  F37 ZIN A   1       6.224   2.642  36.022  1.00  0.00    -0.166 F 
ENDBRANCH  37  40
ENDBRANCH  31  34
ENDBRANCH  29  31
ENDBRANCH  25  29
ENDBRANCH   1  23
TORSDOF 12
ENDMDL
